 ****** HSPICE -- P-2019.06-SP1-1 win64 (Sep 27 2019) ******                    
  Copyright (c) 1986 - 2026 by Synopsys, Inc. All Rights Reserved.              
  This software and the associated documentation are proprietary
  to Synopsys, Inc. This software may only be used in accordance
  with the terms and conditions of a written license agreement with
  Synopsys, Inc. All other use, reproduction, or distribution of
  this software is strictly prohibited.
  Input File: standard_sram_tran.sp                                             
  Command line options: C:\synopsys\Hspice_P-2019.06-SP1-1\WIN64\hspice.com -i standard_sram_tran.sp -o C:\Users\Tengfei\Desktop\Project_DTCO\AutoLDM\Hspice\iv\results\standard_sram_tran\standard_sram_tran
  Start time: Thu Jul  9 10:18:44 2026
  lic:  
  lic: FLEXlm: SDK_12.3 
  lic: USER:   Tengfei              HOSTNAME: LAPTOP-K9QP6UAM 
  lic: HOSTID: "00155daa97f3"       PID:      29468 
  lic: Using FLEXlm license file: 
  lic: 27000@LAPTOP-K9QP6UAM 
  lic: Checkout 1 hspice 
  lic: License/Maintenance for hspice will expire on 30-dec-2030/2030.12 
  lic: 1(in_use)/99(total) FLOATING license(s) on SERVER 27000@LAPTOP-K9QP6UAM 
  lic:   
 **info** *pvaI* Module (cfet_nmos_lvt): 4 unexpanded port, 0 init, 980 behav, 4 contrib, 136/1414 expr(s)

 **info** *pvaI*        Has DIS(ST), 2/146 afCount, 0 MT, sys, IO(0/0/1/0)

 **info** *pvaI*        0 gmdIsThreadSafe (ST)

 **info** *pvaI*        0 const-G and 0 const-C, Has switchBranch, 22 bypassOpt, 0 bus2scalar, 0 vwb

 **info** *pvaI*        set_va_exp = 600 set by default

 **warning** *pvaW*        variable 'tgaamax' declared but not used in RHS, deleted (../va/cfet_nmos_lvt.va:45)

 **warning** *pvaW*                   To relax this rule, use 'setenv PVA_KEEP_VARS 1' to keep variables for probing.

 **warning** *pvaW*        variable 'tgaamin' declared but not used in RHS, deleted (../va/cfet_nmos_lvt.va:46)

 **warning** *pvaW*        variable 'HFIN' declared but not used in RHS, deleted (../va/cfet_nmos_lvt.va:451)

 **warning** *pvaW*        variable 'Inv_L' initialized but not used in RHS, deleted (../va/cfet_nmos_lvt.va:2268)

 **warning** *pvaW*        variable 'Inv_NFIN' initialized but not used in RHS, deleted (../va/cfet_nmos_lvt.va:2269)

 **warning** *pvaW*        variable 'Inv_LNFIN' initialized but not used in RHS, deleted (../va/cfet_nmos_lvt.va:2270)

 **warning** *pvaW*        variable 'Inv_W' initialized but not used in RHS, deleted (../va/cfet_nmos_lvt.va:2271)

 **warning** *pvaW*        variable 'Inv_WL' initialized but not used in RHS, deleted (../va/cfet_nmos_lvt.va:2272)

 **warning** *pvaW*        variable 'WDIM0' declared but not used in RHS, deleted (../va/cfet_nmos_lvt.va:485)

 **warning** *pvaW*        variable 'WDIMR' declared but not used in RHS, deleted (../va/cfet_nmos_lvt.va:486)

 **warning** *pvaW*        variable 'WSSP0' declared but not used in RHS, deleted (../va/cfet_nmos_lvt.va:487)

 **warning** *pvaW*        variable 'WSSPR' declared but not used in RHS, deleted (../va/cfet_nmos_lvt.va:488)

 **warning** *pvaW*        variable 'DIM1H' declared but not used in RHS, deleted (../va/cfet_nmos_lvt.va:490)

 **warning** *pvaW*        variable 'DIMENSION1_i' declared but not used in RHS, deleted (../va/cfet_nmos_lvt.va:491)

 **warning** *pvaW*        variable 'DIM2H' declared but not used in RHS, deleted (../va/cfet_nmos_lvt.va:492)

 **warning** *pvaW*        variable 'DIMENSION2_i' declared but not used in RHS, deleted (../va/cfet_nmos_lvt.va:493)

 **warning** *pvaW*        variable 'DIM3H' declared but not used in RHS, deleted (../va/cfet_nmos_lvt.va:494)

 **warning** *pvaW*        variable 'DIMENSION3_i' declared but not used in RHS, deleted (../va/cfet_nmos_lvt.va:495)

 **warning** *pvaW*        variable 'DSSP1' declared but not used in RHS, deleted (../va/cfet_nmos_lvt.va:496)

 **warning** *pvaW*        variable 'DSSP2' declared but not used in RHS, deleted (../va/cfet_nmos_lvt.va:497)

 **warning** *pvaW*        variable 'DSSP3' declared but not used in RHS, deleted (../va/cfet_nmos_lvt.va:498)

 **warning** *pvaW*        variable 'SSP1_i' declared but not used in RHS, deleted (../va/cfet_nmos_lvt.va:499)

 **warning** *pvaW*        variable 'SSP2_i' declared but not used in RHS, deleted (../va/cfet_nmos_lvt.va:500)

 **warning** *pvaW*        variable 'SSP3_i' declared but not used in RHS, deleted (../va/cfet_nmos_lvt.va:501)

 **warning** *pvaW*        variable 'TSRE2' declared but not used in RHS, deleted (../va/cfet_nmos_lvt.va:503)

 **warning** *pvaW*        variable 'TDWSE2' declared but not used in RHS, deleted (../va/cfet_nmos_lvt.va:504)

 **warning** *pvaW*        variable 'TSRE3' declared but not used in RHS, deleted (../va/cfet_nmos_lvt.va:505)

 **warning** *pvaW*        variable 'TDWSE3' declared but not used in RHS, deleted (../va/cfet_nmos_lvt.va:506)

 **warning** *pvaW*        variable 'TSRQ1' declared but not used in RHS, deleted (../va/cfet_nmos_lvt.va:508)

 **warning** *pvaW*        variable 'TDWSQ1' declared but not used in RHS, deleted (../va/cfet_nmos_lvt.va:509)

 **warning** *pvaW*        variable 'TSRQ2' declared but not used in RHS, deleted (../va/cfet_nmos_lvt.va:510)

 **warning** *pvaW*        variable 'TDWSQ2' declared but not used in RHS, deleted (../va/cfet_nmos_lvt.va:511)

 **warning** *pvaW*        variable 'TSRQ3' declared but not used in RHS, deleted (../va/cfet_nmos_lvt.va:512)

 **warning** *pvaW*        variable 'TDWSQ3' declared but not used in RHS, deleted (../va/cfet_nmos_lvt.va:513)

 **warning** *pvaW*        variable 'WGAANOM' declared but not used in RHS, deleted (../va/cfet_nmos_lvt.va:515)

 **warning** *pvaW*        variable 'WSFE2' declared but not used in RHS, deleted (../va/cfet_nmos_lvt.va:516)

 **warning** *pvaW*        variable 'WSFE3' declared but not used in RHS, deleted (../va/cfet_nmos_lvt.va:517)

 **warning** *pvaW*        variable 'E2NOM_i' declared but not used in RHS, deleted (../va/cfet_nmos_lvt.va:519)

 **warning** *pvaW*        variable 'E3NOM_i' declared but not used in RHS, deleted (../va/cfet_nmos_lvt.va:520)

 **warning** *pvaW*        variable 'MFE2' declared but not used in RHS, deleted (../va/cfet_nmos_lvt.va:522)

 **warning** *pvaW*        variable 'MFE3' declared but not used in RHS, deleted (../va/cfet_nmos_lvt.va:523)

 **warning** *pvaW*        variable 'MFQ1' declared but not used in RHS, deleted (../va/cfet_nmos_lvt.va:525)

 **warning** *pvaW*        variable 'MFQ2' declared but not used in RHS, deleted (../va/cfet_nmos_lvt.va:526)

 **warning** *pvaW*        variable 'MFQ3' declared but not used in RHS, deleted (../va/cfet_nmos_lvt.va:527)

 **warning** *pvaW*        variable 'WSFQ1' declared but not used in RHS, deleted (../va/cfet_nmos_lvt.va:529)

 **warning** *pvaW*        variable 'WSFQ2' declared but not used in RHS, deleted (../va/cfet_nmos_lvt.va:530)

 **warning** *pvaW*        variable 'WSFQ3' declared but not used in RHS, deleted (../va/cfet_nmos_lvt.va:531)

 **warning** *pvaW*        variable 'MFQ1NOM_i' declared but not used in RHS, deleted (../va/cfet_nmos_lvt.va:533)

 **warning** *pvaW*        variable 'MFQ2NOM_i' declared but not used in RHS, deleted (../va/cfet_nmos_lvt.va:534)

 **warning** *pvaW*        variable 'MFQ3NOM_i' declared but not used in RHS, deleted (../va/cfet_nmos_lvt.va:535)

 **warning** *pvaW*        variable 'QMFACTOR_i' declared but not used in RHS, deleted (../va/cfet_nmos_lvt.va:537)

 **warning** *pvaW*        variable 'QMTCENCV_i' declared but not used in RHS, deleted (../va/cfet_nmos_lvt.va:539)

 **warning** *pvaW*        variable 'ETAMOBTHIN' declared but not used in RHS, deleted (../va/cfet_nmos_lvt.va:547)

 **warning** *pvaW*        variable 'ETAMOB' declared but not used in RHS, deleted (../va/cfet_nmos_lvt.va:548)

 **warning** *pvaW*        variable 'ETAMOBTNI' declared but not used in RHS, deleted (../va/cfet_nmos_lvt.va:549)

 **warning** *pvaW*        variable 'ETAMOBIR' declared but not used in RHS, deleted (../va/cfet_nmos_lvt.va:550)

 **warning** *pvaW*        variable 'UA' declared but not used in RHS, deleted (../va/cfet_nmos_lvt.va:551)

 **warning** *pvaW*        variable 'UATHIN' declared but not used in RHS, deleted (../va/cfet_nmos_lvt.va:552)

 **warning** *pvaW*        variable 'UATSAT' declared but not used in RHS, deleted (../va/cfet_nmos_lvt.va:553)

 **warning** *pvaW*        variable 'UARTSC' declared but not used in RHS, deleted (../va/cfet_nmos_lvt.va:554)

 **warning** *pvaW*        variable 'UATNI' declared but not used in RHS, deleted (../va/cfet_nmos_lvt.va:555)

 **warning** *pvaW*        variable 'UAIR' declared but not used in RHS, deleted (../va/cfet_nmos_lvt.va:556)

 **warning** *pvaW*        variable 'EUTHIN' declared but not used in RHS, deleted (../va/cfet_nmos_lvt.va:557)

 **warning** *pvaW*        variable 'EU' declared but not used in RHS, deleted (../va/cfet_nmos_lvt.va:558)

 **warning** *pvaW*        variable 'EUPTSC' declared but not used in RHS, deleted (../va/cfet_nmos_lvt.va:559)

 **warning** *pvaW*        variable 'EUTNI' declared but not used in RHS, deleted (../va/cfet_nmos_lvt.va:560)

 **warning** *pvaW*        variable 'EUIR' declared but not used in RHS, deleted (../va/cfet_nmos_lvt.va:561)

 **warning** *pvaW*        variable 'U0ETAWSC' declared but not used in RHS, deleted (../va/cfet_nmos_lvt.va:562)

 **warning** *pvaW*        variable 'EGBULK' declared but not used in RHS, deleted (../va/cfet_nmos_lvt.va:563)

 **warning** *pvaW*        variable 'U0EMSM1' declared but not used in RHS, deleted (../va/cfet_nmos_lvt.va:564)

 **warning** *pvaW*        variable 'U0EMSM2' declared but not used in RHS, deleted (../va/cfet_nmos_lvt.va:565)

 **warning** *pvaW*        variable 'UDTHIN' declared but not used in RHS, deleted (../va/cfet_nmos_lvt.va:568)

 **warning** *pvaW*        variable 'UD' declared but not used in RHS, deleted (../va/cfet_nmos_lvt.va:569)

 **warning** *pvaW*        variable 'UDTSAT' declared but not used in RHS, deleted (../va/cfet_nmos_lvt.va:570)

 **warning** *pvaW*        variable 'UDPTSC' declared but not used in RHS, deleted (../va/cfet_nmos_lvt.va:571)

 **warning** *pvaW*        variable 'PSAT_i' declared but not used in RHS, deleted (../va/cfet_nmos_lvt.va:578)

 **warning** *pvaW*        variable 'PSATCV_i' declared but not used in RHS, deleted (../va/cfet_nmos_lvt.va:579)

 **warning** *pvaW*        variable 'DELTAVSAT_i' declared but not used in RHS, deleted (../va/cfet_nmos_lvt.va:580)

 **warning** *pvaW*        variable 'DELTAVSATCV_i' declared but not used in RHS, deleted (../va/cfet_nmos_lvt.va:581)

 **warning** *pvaW*        variable 'PTWG_a' declared but not used in RHS, deleted (../va/cfet_nmos_lvt.va:582)

 **warning** *pvaW*        variable 'PCLMG' declared but not used in RHS, deleted (../va/cfet_nmos_lvt.va:609)

 **warning** *pvaW*        variable 'PCLM' declared but not used in RHS, deleted (../va/cfet_nmos_lvt.va:614)

 **warning** *pvaW*        variable 'LPCLM' declared but not used in RHS, deleted (../va/cfet_nmos_lvt.va:615)

 **warning** *pvaW*        variable 'NPCLM' declared but not used in RHS, deleted (../va/cfet_nmos_lvt.va:616)

 **warning** *pvaW*        variable 'PPCLM' declared but not used in RHS, deleted (../va/cfet_nmos_lvt.va:617)

 **warning** *pvaW*        variable 'WPCLM' declared but not used in RHS, deleted (../va/cfet_nmos_lvt.va:618)

 **warning** *pvaW*        variable 'P2PCLM' declared but not used in RHS, deleted (../va/cfet_nmos_lvt.va:619)

 **warning** *pvaW*        variable 'PCLMCV_i' declared but not used in RHS, deleted (../va/cfet_nmos_lvt.va:621)

 **warning** *pvaW*        variable 'DVT1' declared but not used in RHS, deleted (../va/cfet_nmos_lvt.va:623)

 **warning** *pvaW*        variable 'LDVT1' declared but not used in RHS, deleted (../va/cfet_nmos_lvt.va:624)

 **warning** *pvaW*        variable 'NDVT1' declared but not used in RHS, deleted (../va/cfet_nmos_lvt.va:625)

 **warning** *pvaW*        variable 'PDVT1' declared but not used in RHS, deleted (../va/cfet_nmos_lvt.va:626)

 **warning** *pvaW*        variable 'WDVT1' declared but not used in RHS, deleted (../va/cfet_nmos_lvt.va:627)

 **warning** *pvaW*        variable 'P2DVT1' declared but not used in RHS, deleted (../va/cfet_nmos_lvt.va:628)

 **warning** *pvaW*        variable 'DVT1SS' declared but not used in RHS, deleted (../va/cfet_nmos_lvt.va:630)

 **warning** *pvaW*        variable 'LDVT1SS' declared but not used in RHS, deleted (../va/cfet_nmos_lvt.va:631)

 **warning** *pvaW*        variable 'NDVT1SS' declared but not used in RHS, deleted (../va/cfet_nmos_lvt.va:632)

 **warning** *pvaW*        variable 'PDVT1SS' declared but not used in RHS, deleted (../va/cfet_nmos_lvt.va:633)

 **warning** *pvaW*        variable 'WDVT1SS' declared but not used in RHS, deleted (../va/cfet_nmos_lvt.va:634)

 **warning** *pvaW*        variable 'P2DVT1SS' declared but not used in RHS, deleted (../va/cfet_nmos_lvt.va:635)

 **warning** *pvaW*        variable 'DSUB' declared but not used in RHS, deleted (../va/cfet_nmos_lvt.va:637)

 **warning** *pvaW*        variable 'LDSUB' declared but not used in RHS, deleted (../va/cfet_nmos_lvt.va:638)

 **warning** *pvaW*        variable 'NDSUB' declared but not used in RHS, deleted (../va/cfet_nmos_lvt.va:639)

 **warning** *pvaW*        variable 'PDSUB' declared but not used in RHS, deleted (../va/cfet_nmos_lvt.va:640)

 **warning** *pvaW*        variable 'WDSUB' declared but not used in RHS, deleted (../va/cfet_nmos_lvt.va:641)

 **warning** *pvaW*        variable 'P2DSUB' declared but not used in RHS, deleted (../va/cfet_nmos_lvt.va:642)

 **warning** *pvaW*        variable 'LPE0' declared but not used in RHS, deleted (../va/cfet_nmos_lvt.va:644)

 **warning** *pvaW*        variable 'LLPE0' declared but not used in RHS, deleted (../va/cfet_nmos_lvt.va:645)

 **warning** *pvaW*        variable 'NLPE0' declared but not used in RHS, deleted (../va/cfet_nmos_lvt.va:646)

 **warning** *pvaW*        variable 'PLPE0' declared but not used in RHS, deleted (../va/cfet_nmos_lvt.va:647)

 **warning** *pvaW*        variable 'WLPE0' declared but not used in RHS, deleted (../va/cfet_nmos_lvt.va:648)

 **warning** *pvaW*        variable 'P2LPE0' declared but not used in RHS, deleted (../va/cfet_nmos_lvt.va:649)

 **warning** *pvaW*        variable 'CDSC' declared but not used in RHS, deleted (../va/cfet_nmos_lvt.va:651)

 **warning** *pvaW*        variable 'LCDSC' declared but not used in RHS, deleted (../va/cfet_nmos_lvt.va:652)

 **warning** *pvaW*        variable 'NCDSC' declared but not used in RHS, deleted (../va/cfet_nmos_lvt.va:653)

 **warning** *pvaW*        variable 'PCDSC' declared but not used in RHS, deleted (../va/cfet_nmos_lvt.va:654)

 **warning** *pvaW*        variable 'WCDSC' declared but not used in RHS, deleted (../va/cfet_nmos_lvt.va:655)

 **warning** *pvaW*        variable 'P2CDSC' declared but not used in RHS, deleted (../va/cfet_nmos_lvt.va:656)

 **warning** *pvaW*        variable 'CDSCD' declared but not used in RHS, deleted (../va/cfet_nmos_lvt.va:658)

 **warning** *pvaW*        variable 'LCDSCD' declared but not used in RHS, deleted (../va/cfet_nmos_lvt.va:659)

 **warning** *pvaW*        variable 'NCDSCD' declared but not used in RHS, deleted (../va/cfet_nmos_lvt.va:660)

 **warning** *pvaW*        variable 'PCDSCD' declared but not used in RHS, deleted (../va/cfet_nmos_lvt.va:661)

 **warning** *pvaW*        variable 'WCDSCD' declared but not used in RHS, deleted (../va/cfet_nmos_lvt.va:662)

 **warning** *pvaW*        variable 'P2CDSCD' declared but not used in RHS, deleted (../va/cfet_nmos_lvt.va:663)

 **warning** *pvaW*        variable 'CIT' declared but not used in RHS, deleted (../va/cfet_nmos_lvt.va:665)

 **warning** *pvaW*        variable 'LCIT' declared but not used in RHS, deleted (../va/cfet_nmos_lvt.va:666)

 **warning** *pvaW*        variable 'NCIT' declared but not used in RHS, deleted (../va/cfet_nmos_lvt.va:667)

 **warning** *pvaW*        variable 'PCIT' declared but not used in RHS, deleted (../va/cfet_nmos_lvt.va:668)

 **warning** *pvaW*        variable 'WCIT' declared but not used in RHS, deleted (../va/cfet_nmos_lvt.va:669)

 **warning** *pvaW*        variable 'P2CIT' declared but not used in RHS, deleted (../va/cfet_nmos_lvt.va:670)

 **warning** *pvaW*        variable 'DVT0' declared but not used in RHS, deleted (../va/cfet_nmos_lvt.va:672)

 **warning** *pvaW*        variable 'LDVT0' declared but not used in RHS, deleted (../va/cfet_nmos_lvt.va:673)

 **warning** *pvaW*        variable 'NDVT0' declared but not used in RHS, deleted (../va/cfet_nmos_lvt.va:674)

 **warning** *pvaW*        variable 'PDVT0' declared but not used in RHS, deleted (../va/cfet_nmos_lvt.va:675)

 **warning** *pvaW*        variable 'WDVT0' declared but not used in RHS, deleted (../va/cfet_nmos_lvt.va:676)

 **warning** *pvaW*        variable 'P2DVT0' declared but not used in RHS, deleted (../va/cfet_nmos_lvt.va:677)

 **warning** *pvaW*        variable 'ETA0' declared but not used in RHS, deleted (../va/cfet_nmos_lvt.va:679)

 **warning** *pvaW*        variable 'LETA0' declared but not used in RHS, deleted (../va/cfet_nmos_lvt.va:680)

 **warning** *pvaW*        variable 'NETA0' declared but not used in RHS, deleted (../va/cfet_nmos_lvt.va:681)

 **warning** *pvaW*        variable 'PETA0' declared but not used in RHS, deleted (../va/cfet_nmos_lvt.va:682)

 **warning** *pvaW*        variable 'WETA0' declared but not used in RHS, deleted (../va/cfet_nmos_lvt.va:683)

 **warning** *pvaW*        variable 'P2ETA0' declared but not used in RHS, deleted (../va/cfet_nmos_lvt.va:684)

 **warning** *pvaW*        variable 'DVTP0' declared but not used in RHS, deleted (../va/cfet_nmos_lvt.va:686)

 **warning** *pvaW*        variable 'LDVTP0' declared but not used in RHS, deleted (../va/cfet_nmos_lvt.va:687)

 **warning** *pvaW*        variable 'NDVTP0' declared but not used in RHS, deleted (../va/cfet_nmos_lvt.va:688)

 **warning** *pvaW*        variable 'PDVTP0' declared but not used in RHS, deleted (../va/cfet_nmos_lvt.va:689)

 **warning** *pvaW*        variable 'WDVTP0' declared but not used in RHS, deleted (../va/cfet_nmos_lvt.va:690)

 **warning** *pvaW*        variable 'P2DVTP0' declared but not used in RHS, deleted (../va/cfet_nmos_lvt.va:691)

 **warning** *pvaW*        variable 'DVTP1' declared but not used in RHS, deleted (../va/cfet_nmos_lvt.va:693)

 **warning** *pvaW*        variable 'LDVTP1' declared but not used in RHS, deleted (../va/cfet_nmos_lvt.va:694)

 **warning** *pvaW*        variable 'NDVTP1' declared but not used in RHS, deleted (../va/cfet_nmos_lvt.va:695)

 **warning** *pvaW*        variable 'PDVTP1' declared but not used in RHS, deleted (../va/cfet_nmos_lvt.va:696)

 **warning** *pvaW*        variable 'WDVTP1' declared but not used in RHS, deleted (../va/cfet_nmos_lvt.va:697)

 **warning** *pvaW*        variable 'P2DVTP1' declared but not used in RHS, deleted (../va/cfet_nmos_lvt.va:698)

 **warning** *pvaW*        variable 'K1RSCE' declared but not used in RHS, deleted (../va/cfet_nmos_lvt.va:700)

 **warning** *pvaW*        variable 'LK1RSCE' declared but not used in RHS, deleted (../va/cfet_nmos_lvt.va:701)

 **warning** *pvaW*        variable 'NK1RSCE' declared but not used in RHS, deleted (../va/cfet_nmos_lvt.va:702)

 **warning** *pvaW*        variable 'PK1RSCE' declared but not used in RHS, deleted (../va/cfet_nmos_lvt.va:703)

 **warning** *pvaW*        variable 'WK1RSCE' declared but not used in RHS, deleted (../va/cfet_nmos_lvt.va:704)

 **warning** *pvaW*        variable 'P2K1RSCE' declared but not used in RHS, deleted (../va/cfet_nmos_lvt.va:705)

 **warning** *pvaW*        variable 'CKAPPAS_i' declared but not used in RHS, deleted (../va/cfet_nmos_lvt.va:712)

 **warning** *pvaW*        variable 'nnquaw3_4_1_cap' declared but not used in RHS, deleted (../va/cfet_nmos_lvt.va:905)

 **warning** *pvaW*        variable 'nnquaw3_4_2_cap' declared but not used in RHS, deleted (../va/cfet_nmos_lvt.va:906)

 **warning** *pvaW*        variable 'nnquaw3_4_3_cap' declared but not used in RHS, deleted (../va/cfet_nmos_lvt.va:907)

 **warning** *pvaW*        variable 'nnquaw3_5_1_cap' declared but not used in RHS, deleted (../va/cfet_nmos_lvt.va:908)

 **warning** *pvaW*        variable 'nnquaw3_5_2_cap' declared but not used in RHS, deleted (../va/cfet_nmos_lvt.va:909)

 **warning** *pvaW*        variable 'nnquaw3_5_3_cap' declared but not used in RHS, deleted (../va/cfet_nmos_lvt.va:910)

 **warning** *pvaW*        variable 'nnquaw3_6_1_cap' declared but not used in RHS, deleted (../va/cfet_nmos_lvt.va:911)

 **warning** *pvaW*        variable 'nnquaw3_6_2_cap' declared but not used in RHS, deleted (../va/cfet_nmos_lvt.va:912)

 **warning** *pvaW*        variable 'nnquaw3_6_3_cap' declared but not used in RHS, deleted (../va/cfet_nmos_lvt.va:913)

 **warning** *pvaW*        variable 'nnquaw3_7_1_cap' declared but not used in RHS, deleted (../va/cfet_nmos_lvt.va:914)

 **warning** *pvaW*        variable 'nnquaw3_7_2_cap' declared but not used in RHS, deleted (../va/cfet_nmos_lvt.va:915)

 **warning** *pvaW*        variable 'nnquaw3_7_3_cap' declared but not used in RHS, deleted (../va/cfet_nmos_lvt.va:916)

 **warning** *pvaW*        variable 'nnquab3_4_cap' declared but not used in RHS, deleted (../va/cfet_nmos_lvt.va:932)

 **warning** *pvaW*        variable 'nnquab3_5_cap' declared but not used in RHS, deleted (../va/cfet_nmos_lvt.va:933)

 **warning** *pvaW*        variable 'nnquab3_6_cap' declared but not used in RHS, deleted (../va/cfet_nmos_lvt.va:934)

 **warning** *pvaW*        variable 'nnquab3_7_cap' declared but not used in RHS, deleted (../va/cfet_nmos_lvt.va:935)

 **warning** *pvaW*        variable 'gidl_output6' initialized but not used in RHS, deleted (../va/cfet_nmos_lvt.va:1451)

 **warning** *pvaW*        variable 'gidl_output7' initialized but not used in RHS, deleted (../va/cfet_nmos_lvt.va:1452)

 **warning** *pvaW*        variable 'cv_output15' initialized but not used in RHS, deleted (../va/cfet_nmos_lvt.va:2242)

 **warning** *pvaW*        variable 'CGG' initialized but not used in RHS, deleted (../va/cfet_nmos_lvt.va:2705)

 **warning** *pvaW*        variable 'CGD' initialized but not used in RHS, deleted (../va/cfet_nmos_lvt.va:2706)

 **warning** *pvaW*        variable 'CGS' initialized but not used in RHS, deleted (../va/cfet_nmos_lvt.va:2707)

 **warning** *pvaW*        variable 'CDG' initialized but not used in RHS, deleted (../va/cfet_nmos_lvt.va:2708)

 **warning** *pvaW*        variable 'CDD' initialized but not used in RHS, deleted (../va/cfet_nmos_lvt.va:2709)

 **warning** *pvaW*        variable 'CDS' initialized but not used in RHS, deleted (../va/cfet_nmos_lvt.va:2710)

 **warning** *pvaW*        variable 'CSG' initialized but not used in RHS, deleted (../va/cfet_nmos_lvt.va:2711)

 **warning** *pvaW*        variable 'CSD' initialized but not used in RHS, deleted (../va/cfet_nmos_lvt.va:2712)

 **warning** *pvaW*        variable 'CSS' initialized but not used in RHS, deleted (../va/cfet_nmos_lvt.va:2713)

 **warning** *pvaW*        variable 'tmp1_pku' initialized but not used in RHS, deleted (../va/cfet_nmos_lvt.va:1994)

 **warning** *pvaW*        variable 'tmp2_pku' initialized but not used in RHS, deleted (../va/cfet_nmos_lvt.va:1995)

 **warning** *pvaW*        variable 'tmp3_pku' initialized but not used in RHS, deleted (../va/cfet_nmos_lvt.va:1996)

 **warning** *pvaW*        variable 'tmp4_pku' initialized but not used in RHS, deleted (../va/cfet_nmos_lvt.va:1997)

 **warning** *pvaW*        variable 'tmp5_pku' initialized but not used in RHS, deleted (../va/cfet_nmos_lvt.va:1998)

 **warning** *pvaW*        variable 'vfbsd1' declared but not used in RHS, deleted (../va/cfet_nmos_lvt.va:1199)

 **warning** *pvaW*        variable 'vgs_a' declared but not used in RHS, deleted (../va/cfet_nmos_lvt.va:1199)

 **warning** *pvaW*        variable 'vgd_a' declared but not used in RHS, deleted (../va/cfet_nmos_lvt.va:1199)

 **warning** *pvaW*        variable 'WeffB' initialized but not used in RHS, deleted (../va/cfet_nmos_lvt.va:2317)

 **warning** *pvaW*        variable 'd1' declared but not used in RHS, deleted (../va/cfet_nmos_lvt.va:1203)

 **warning** *pvaW*        variable 'd2' declared but not used in RHS, deleted (../va/cfet_nmos_lvt.va:1203)

 **warning** *pvaW*        variable 'd3' declared but not used in RHS, deleted (../va/cfet_nmos_lvt.va:1203)

 **warning** *pvaW*        variable 'p1' declared but not used in RHS, deleted (../va/cfet_nmos_lvt.va:1203)

 **warning** *pvaW*        variable 'p2' declared but not used in RHS, deleted (../va/cfet_nmos_lvt.va:1203)

 **warning** *pvaW*        variable 'p3' declared but not used in RHS, deleted (../va/cfet_nmos_lvt.va:1203)

 **warning** *pvaW*        variable 'Tp1' declared but not used in RHS, deleted (../va/cfet_nmos_lvt.va:1203)

 **warning** *pvaW*        variable 'Tp2' declared but not used in RHS, deleted (../va/cfet_nmos_lvt.va:1203)

 **warning** *pvaW*        variable 'Tp3' declared but not used in RHS, deleted (../va/cfet_nmos_lvt.va:1203)

 **warning** *pvaW*        variable 'Wp1' declared but not used in RHS, deleted (../va/cfet_nmos_lvt.va:1203)

 **warning** *pvaW*        variable 'Wp2' declared but not used in RHS, deleted (../va/cfet_nmos_lvt.va:1203)

 **warning** *pvaW*        variable 'Wp3' declared but not used in RHS, deleted (../va/cfet_nmos_lvt.va:1203)

 **warning** *pvaW*        variable 'VnD1' declared but not used in RHS, deleted (../va/cfet_nmos_lvt.va:1211)

 **warning** *pvaW*        variable 'qndnf1' declared but not used in RHS, deleted (../va/cfet_nmos_lvt.va:1211)

 **warning** *pvaW*        variable 'VnD2' declared but not used in RHS, deleted (../va/cfet_nmos_lvt.va:1211)

 **warning** *pvaW*        variable 'qndnf2' declared but not used in RHS, deleted (../va/cfet_nmos_lvt.va:1211)

 **warning** *pvaW*        variable 'VnD3' declared but not used in RHS, deleted (../va/cfet_nmos_lvt.va:1211)

 **warning** *pvaW*        variable 'qndnf3' declared but not used in RHS, deleted (../va/cfet_nmos_lvt.va:1211)

 **warning** *pvaW*        variable 'nc3d0' declared but not used in RHS, deleted (../va/cfet_nmos_lvt.va:1211)

 **warning** *pvaW*        variable 'nc3d' declared but not used in RHS, deleted (../va/cfet_nmos_lvt.va:1211)

 **warning** *pvaW*        variable 'ncq' declared but not used in RHS, deleted (../va/cfet_nmos_lvt.va:1211)

 **warning** *pvaW*        variable 'QT0' declared but not used in RHS, deleted (../va/cfet_nmos_lvt.va:1211)

 **warning** *pvaW*        variable 'QT1' declared but not used in RHS, deleted (../va/cfet_nmos_lvt.va:1211)

 **warning** *pvaW*        variable 'ne2h' declared but not used in RHS, deleted (../va/cfet_nmos_lvt.va:1211)

 **warning** *pvaW*        variable 'pe2h' declared but not used in RHS, deleted (../va/cfet_nmos_lvt.va:1211)

 **warning** *pvaW*        variable 'ne3h' declared but not used in RHS, deleted (../va/cfet_nmos_lvt.va:1211)

 **warning** *pvaW*        variable 'pe3h' declared but not used in RHS, deleted (../va/cfet_nmos_lvt.va:1211)

 **warning** *pvaW*        variable 'nc1l0' declared but not used in RHS, deleted (../va/cfet_nmos_lvt.va:1211)

 **warning** *pvaW*        variable 'pnc1l' declared but not used in RHS, deleted (../va/cfet_nmos_lvt.va:1211)

 **warning** *pvaW*        variable 'nc2l0' declared but not used in RHS, deleted (../va/cfet_nmos_lvt.va:1211)

 **warning** *pvaW*        variable 'pnc2l' declared but not used in RHS, deleted (../va/cfet_nmos_lvt.va:1211)

 **warning** *pvaW*        variable 'nc3l0' declared but not used in RHS, deleted (../va/cfet_nmos_lvt.va:1211)

 **warning** *pvaW*        variable 'pnc3l' declared but not used in RHS, deleted (../va/cfet_nmos_lvt.va:1211)

 **warning** *pvaW*        variable 'qe2n' declared but not used in RHS, deleted (../va/cfet_nmos_lvt.va:1211)

 **warning** *pvaW*        variable 'qe3n' declared but not used in RHS, deleted (../va/cfet_nmos_lvt.va:1211)

 **warning** *pvaW*        variable 'qe2' declared but not used in RHS, deleted (../va/cfet_nmos_lvt.va:1211)

 **warning** *pvaW*        variable 'qe3' declared but not used in RHS, deleted (../va/cfet_nmos_lvt.va:1211)

 **warning** *pvaW*        variable 'nc1l' declared but not used in RHS, deleted (../va/cfet_nmos_lvt.va:1211)

 **warning** *pvaW*        variable 'nc1ln' declared but not used in RHS, deleted (../va/cfet_nmos_lvt.va:1211)

 **warning** *pvaW*        variable 'nc1' declared but not used in RHS, deleted (../va/cfet_nmos_lvt.va:1211)

 **warning** *pvaW*        variable 'nc2l' declared but not used in RHS, deleted (../va/cfet_nmos_lvt.va:1211)

 **warning** *pvaW*        variable 'nc2ln' declared but not used in RHS, deleted (../va/cfet_nmos_lvt.va:1211)

 **warning** *pvaW*        variable 'nc2' declared but not used in RHS, deleted (../va/cfet_nmos_lvt.va:1211)

 **warning** *pvaW*        variable 'nc3l' declared but not used in RHS, deleted (../va/cfet_nmos_lvt.va:1211)

 **warning** *pvaW*        variable 'nc3ln' declared but not used in RHS, deleted (../va/cfet_nmos_lvt.va:1211)

 **warning** *pvaW*        variable 'nc3' declared but not used in RHS, deleted (../va/cfet_nmos_lvt.va:1211)

 **warning** *pvaW*        variable 'qnd10' declared but not used in RHS, deleted (../va/cfet_nmos_lvt.va:1211)

 **warning** *pvaW*        variable 'qnd20' declared but not used in RHS, deleted (../va/cfet_nmos_lvt.va:1211)

 **warning** *pvaW*        variable 'qnd30' declared but not used in RHS, deleted (../va/cfet_nmos_lvt.va:1211)

 **warning** *pvaW*        variable 'GM' initialized but not used in RHS, deleted (../va/cfet_nmos_lvt.va:2702)

 **warning** *pvaW*        variable 'GDS' initialized but not used in RHS, deleted (../va/cfet_nmos_lvt.va:2703)

 **warning** *pvaW*        variable 'qndd1' declared but not used in RHS, deleted (../va/cfet_nmos_lvt.va:1215)

 **warning** *pvaW*        variable 'qndd2' declared but not used in RHS, deleted (../va/cfet_nmos_lvt.va:1215)

 **warning** *pvaW*        variable 'qndd3' declared but not used in RHS, deleted (../va/cfet_nmos_lvt.va:1215)

 **warning** *pvaW*        variable 'QT2' declared but not used in RHS, deleted (../va/cfet_nmos_lvt.va:1234)

 **warning** *pvaW*        variable 'QT3' declared but not used in RHS, deleted (../va/cfet_nmos_lvt.va:1234)

 **warning** *pvaW*        variable 'QT4' declared but not used in RHS, deleted (../va/cfet_nmos_lvt.va:1234)

 **warning** *pvaW*        variable 'qnds1' declared but not used in RHS, deleted (../va/cfet_nmos_lvt.va:1234)

 **warning** *pvaW*        variable 'QT5' declared but not used in RHS, deleted (../va/cfet_nmos_lvt.va:1234)

 **warning** *pvaW*        variable 'QT6' declared but not used in RHS, deleted (../va/cfet_nmos_lvt.va:1234)

 **warning** *pvaW*        variable 'QT7' declared but not used in RHS, deleted (../va/cfet_nmos_lvt.va:1234)

 **warning** *pvaW*        variable 'qnds2' declared but not used in RHS, deleted (../va/cfet_nmos_lvt.va:1234)

 **warning** *pvaW*        variable 'QT8' declared but not used in RHS, deleted (../va/cfet_nmos_lvt.va:1234)

 **warning** *pvaW*        variable 'QT9' declared but not used in RHS, deleted (../va/cfet_nmos_lvt.va:1234)

 **warning** *pvaW*        variable 'QT10' declared but not used in RHS, deleted (../va/cfet_nmos_lvt.va:1234)

 **warning** *pvaW*        variable 'qnds3' declared but not used in RHS, deleted (../va/cfet_nmos_lvt.va:1234)

 **warning** *pvaW*        variable 'TOXG1' declared but not used in RHS, deleted (../va/cfet_nmos_lvt.va:1234)

 **warning** *pvaW*        variable 'igtemp' declared but not used in RHS, deleted (../va/cfet_nmos_lvt.va:1234)

 **warning** *pvaW*        variable 'Tox_ratio' declared but not used in RHS, deleted (../va/cfet_nmos_lvt.va:1234)

 **warning** *pvaW*        variable 'T0_g' declared but not used in RHS, deleted (../va/cfet_nmos_lvt.va:1234)

 **warning** *pvaW*        variable 'igc' declared but not used in RHS, deleted (../va/cfet_nmos_lvt.va:1234)

 **warning** *pvaW*        variable 'igs' declared but not used in RHS, deleted (../va/cfet_nmos_lvt.va:1234)

 **warning** *pvaW*        variable 'igd' declared but not used in RHS, deleted (../va/cfet_nmos_lvt.va:1234)

 **warning** *pvaW*        variable 'ig' declared but not used in RHS, deleted (../va/cfet_nmos_lvt.va:1234)

 **warning** *pvaW*        variable 'vgd' declared but not used in RHS, deleted (../va/cfet_nmos_lvt.va:1234)

 **warning** *pvaW*        variable 'NTOX_i' declared but not used in RHS, deleted (../va/cfet_nmos_lvt.va:1240)

 **warning** *pvaW*        variable 'mut0' declared but not used in RHS, deleted (../va/cfet_nmos_lvt.va:1240)

 **warning** *pvaW*        variable 'mut1' declared but not used in RHS, deleted (../va/cfet_nmos_lvt.va:1240)

 **warning** *pvaW*        variable 'mut2' declared but not used in RHS, deleted (../va/cfet_nmos_lvt.va:1240)

 **warning** *pvaW*        variable 'mut3' declared but not used in RHS, deleted (../va/cfet_nmos_lvt.va:1240)

 **warning** *pvaW*        variable 'mut4' declared but not used in RHS, deleted (../va/cfet_nmos_lvt.va:1240)

 **warning** *pvaW*        variable 'mut5' declared but not used in RHS, deleted (../va/cfet_nmos_lvt.va:1240)

 **warning** *pvaW*        variable 'mut6' declared but not used in RHS, deleted (../va/cfet_nmos_lvt.va:1240)

 **warning** *pvaW*        variable 'ids_tmp' initialized but not used in RHS, deleted (../va/cfet_nmos_lvt.va:2652)

 **info** *pvaI*        port 'B' at 4 declared, but not used

 **info** *pvaI*        generated 0 flow node(s) during compilation.

 **info** *pvaI* Module (cfet_pmos_lvt): 4 unexpanded port, 0 init, 1005 behav, 4 contrib, 136/1439 expr(s)

 **info** *pvaI*        Has DIS(ST), 2/146 afCount, 0 MT, sys, IO(0/0/1/0)

 **info** *pvaI*        0 gmdIsThreadSafe (ST)

 **info** *pvaI*        0 const-G and 0 const-C, Has switchBranch, 22 bypassOpt, 0 bus2scalar, 0 vwb

 **info** *pvaI*        set_va_exp = 600 set by default

 **warning** *pvaW*        variable 'tgaamax' declared but not used in RHS, deleted (../va/cfet_pmos_lvt.va:45)

 **warning** *pvaW*        variable 'tgaamin' declared but not used in RHS, deleted (../va/cfet_pmos_lvt.va:46)

 **warning** *pvaW*        variable 'HFIN' declared but not used in RHS, deleted (../va/cfet_pmos_lvt.va:450)

 **warning** *pvaW*        variable 'Inv_L' initialized but not used in RHS, deleted (../va/cfet_pmos_lvt.va:2314)

 **warning** *pvaW*        variable 'Inv_NFIN' initialized but not used in RHS, deleted (../va/cfet_pmos_lvt.va:2315)

 **warning** *pvaW*        variable 'Inv_LNFIN' initialized but not used in RHS, deleted (../va/cfet_pmos_lvt.va:2316)

 **warning** *pvaW*        variable 'Inv_W' initialized but not used in RHS, deleted (../va/cfet_pmos_lvt.va:2317)

 **warning** *pvaW*        variable 'Inv_WL' initialized but not used in RHS, deleted (../va/cfet_pmos_lvt.va:2318)

 **warning** *pvaW*        variable 'WDIM0' declared but not used in RHS, deleted (../va/cfet_pmos_lvt.va:485)

 **warning** *pvaW*        variable 'WDIMR' declared but not used in RHS, deleted (../va/cfet_pmos_lvt.va:486)

 **warning** *pvaW*        variable 'WSSP0' declared but not used in RHS, deleted (../va/cfet_pmos_lvt.va:487)

 **warning** *pvaW*        variable 'WSSPR' declared but not used in RHS, deleted (../va/cfet_pmos_lvt.va:488)

 **warning** *pvaW*        variable 'DIM1H' declared but not used in RHS, deleted (../va/cfet_pmos_lvt.va:490)

 **warning** *pvaW*        variable 'DIMENSION1_i' declared but not used in RHS, deleted (../va/cfet_pmos_lvt.va:491)

 **warning** *pvaW*        variable 'DIM2H' declared but not used in RHS, deleted (../va/cfet_pmos_lvt.va:492)

 **warning** *pvaW*        variable 'DIMENSION2_i' declared but not used in RHS, deleted (../va/cfet_pmos_lvt.va:493)

 **warning** *pvaW*        variable 'DIM3H' declared but not used in RHS, deleted (../va/cfet_pmos_lvt.va:494)

 **warning** *pvaW*        variable 'DIMENSION3_i' declared but not used in RHS, deleted (../va/cfet_pmos_lvt.va:495)

 **warning** *pvaW*        variable 'DSSP1' declared but not used in RHS, deleted (../va/cfet_pmos_lvt.va:496)

 **warning** *pvaW*        variable 'DSSP2' declared but not used in RHS, deleted (../va/cfet_pmos_lvt.va:497)

 **warning** *pvaW*        variable 'DSSP3' declared but not used in RHS, deleted (../va/cfet_pmos_lvt.va:498)

 **warning** *pvaW*        variable 'SSP1_i' declared but not used in RHS, deleted (../va/cfet_pmos_lvt.va:499)

 **warning** *pvaW*        variable 'SSP2_i' declared but not used in RHS, deleted (../va/cfet_pmos_lvt.va:500)

 **warning** *pvaW*        variable 'SSP3_i' declared but not used in RHS, deleted (../va/cfet_pmos_lvt.va:501)

 **warning** *pvaW*        variable 'TSRE2' declared but not used in RHS, deleted (../va/cfet_pmos_lvt.va:503)

 **warning** *pvaW*        variable 'TDWSE2' declared but not used in RHS, deleted (../va/cfet_pmos_lvt.va:504)

 **warning** *pvaW*        variable 'TSRE3' declared but not used in RHS, deleted (../va/cfet_pmos_lvt.va:505)

 **warning** *pvaW*        variable 'TDWSE3' declared but not used in RHS, deleted (../va/cfet_pmos_lvt.va:506)

 **warning** *pvaW*        variable 'TSRQ1' declared but not used in RHS, deleted (../va/cfet_pmos_lvt.va:508)

 **warning** *pvaW*        variable 'TDWSQ1' declared but not used in RHS, deleted (../va/cfet_pmos_lvt.va:509)

 **warning** *pvaW*        variable 'TSRQ2' declared but not used in RHS, deleted (../va/cfet_pmos_lvt.va:510)

 **warning** *pvaW*        variable 'TDWSQ2' declared but not used in RHS, deleted (../va/cfet_pmos_lvt.va:511)

 **warning** *pvaW*        variable 'TSRQ3' declared but not used in RHS, deleted (../va/cfet_pmos_lvt.va:512)

 **warning** *pvaW*        variable 'TDWSQ3' declared but not used in RHS, deleted (../va/cfet_pmos_lvt.va:513)

 **warning** *pvaW*        variable 'WGAANOM' declared but not used in RHS, deleted (../va/cfet_pmos_lvt.va:515)

 **warning** *pvaW*        variable 'WSFE2' declared but not used in RHS, deleted (../va/cfet_pmos_lvt.va:516)

 **warning** *pvaW*        variable 'WSFE3' declared but not used in RHS, deleted (../va/cfet_pmos_lvt.va:517)

 **warning** *pvaW*        variable 'E2NOM_i' declared but not used in RHS, deleted (../va/cfet_pmos_lvt.va:519)

 **warning** *pvaW*        variable 'E3NOM_i' declared but not used in RHS, deleted (../va/cfet_pmos_lvt.va:520)

 **warning** *pvaW*        variable 'MFE2' declared but not used in RHS, deleted (../va/cfet_pmos_lvt.va:522)

 **warning** *pvaW*        variable 'MFE3' declared but not used in RHS, deleted (../va/cfet_pmos_lvt.va:523)

 **warning** *pvaW*        variable 'MFQ1' declared but not used in RHS, deleted (../va/cfet_pmos_lvt.va:525)

 **warning** *pvaW*        variable 'MFQ2' declared but not used in RHS, deleted (../va/cfet_pmos_lvt.va:526)

 **warning** *pvaW*        variable 'MFQ3' declared but not used in RHS, deleted (../va/cfet_pmos_lvt.va:527)

 **warning** *pvaW*        variable 'WSFQ1' declared but not used in RHS, deleted (../va/cfet_pmos_lvt.va:529)

 **warning** *pvaW*        variable 'WSFQ2' declared but not used in RHS, deleted (../va/cfet_pmos_lvt.va:530)

 **warning** *pvaW*        variable 'WSFQ3' declared but not used in RHS, deleted (../va/cfet_pmos_lvt.va:531)

 **warning** *pvaW*        variable 'MFQ1NOM_i' declared but not used in RHS, deleted (../va/cfet_pmos_lvt.va:533)

 **warning** *pvaW*        variable 'MFQ2NOM_i' declared but not used in RHS, deleted (../va/cfet_pmos_lvt.va:534)

 **warning** *pvaW*        variable 'MFQ3NOM_i' declared but not used in RHS, deleted (../va/cfet_pmos_lvt.va:535)

 **warning** *pvaW*        variable 'QMFACTOR_i' declared but not used in RHS, deleted (../va/cfet_pmos_lvt.va:537)

 **warning** *pvaW*        variable 'QMTCENCV_i' declared but not used in RHS, deleted (../va/cfet_pmos_lvt.va:539)

 **warning** *pvaW*        variable 'ETAMOBTHIN' declared but not used in RHS, deleted (../va/cfet_pmos_lvt.va:547)

 **warning** *pvaW*        variable 'ETAMOB' declared but not used in RHS, deleted (../va/cfet_pmos_lvt.va:548)

 **warning** *pvaW*        variable 'ETAMOBTNI' declared but not used in RHS, deleted (../va/cfet_pmos_lvt.va:549)

 **warning** *pvaW*        variable 'ETAMOBIR' declared but not used in RHS, deleted (../va/cfet_pmos_lvt.va:550)

 **warning** *pvaW*        variable 'UA' declared but not used in RHS, deleted (../va/cfet_pmos_lvt.va:551)

 **warning** *pvaW*        variable 'UATHIN' declared but not used in RHS, deleted (../va/cfet_pmos_lvt.va:552)

 **warning** *pvaW*        variable 'UATSAT' declared but not used in RHS, deleted (../va/cfet_pmos_lvt.va:553)

 **warning** *pvaW*        variable 'UARTSC' declared but not used in RHS, deleted (../va/cfet_pmos_lvt.va:554)

 **warning** *pvaW*        variable 'UATNI' declared but not used in RHS, deleted (../va/cfet_pmos_lvt.va:555)

 **warning** *pvaW*        variable 'UAIR' declared but not used in RHS, deleted (../va/cfet_pmos_lvt.va:556)

 **warning** *pvaW*        variable 'EUTHIN' declared but not used in RHS, deleted (../va/cfet_pmos_lvt.va:557)

 **warning** *pvaW*        variable 'EU' declared but not used in RHS, deleted (../va/cfet_pmos_lvt.va:558)

 **warning** *pvaW*        variable 'EUPTSC' declared but not used in RHS, deleted (../va/cfet_pmos_lvt.va:559)

 **warning** *pvaW*        variable 'EUTNI' declared but not used in RHS, deleted (../va/cfet_pmos_lvt.va:560)

 **warning** *pvaW*        variable 'EUIR' declared but not used in RHS, deleted (../va/cfet_pmos_lvt.va:561)

 **warning** *pvaW*        variable 'U0ETAWSC' declared but not used in RHS, deleted (../va/cfet_pmos_lvt.va:562)

 **warning** *pvaW*        variable 'EGBULK' declared but not used in RHS, deleted (../va/cfet_pmos_lvt.va:563)

 **warning** *pvaW*        variable 'U0EMSM1' declared but not used in RHS, deleted (../va/cfet_pmos_lvt.va:564)

 **warning** *pvaW*        variable 'U0EMSM2' declared but not used in RHS, deleted (../va/cfet_pmos_lvt.va:565)

 **warning** *pvaW*        variable 'UDTHIN' declared but not used in RHS, deleted (../va/cfet_pmos_lvt.va:568)

 **warning** *pvaW*        variable 'UD' declared but not used in RHS, deleted (../va/cfet_pmos_lvt.va:569)

 **warning** *pvaW*        variable 'UDTSAT' declared but not used in RHS, deleted (../va/cfet_pmos_lvt.va:570)

 **warning** *pvaW*        variable 'UDPTSC' declared but not used in RHS, deleted (../va/cfet_pmos_lvt.va:571)

 **warning** *pvaW*        variable 'PSAT_i' declared but not used in RHS, deleted (../va/cfet_pmos_lvt.va:578)

 **warning** *pvaW*        variable 'PSATCV_i' declared but not used in RHS, deleted (../va/cfet_pmos_lvt.va:579)

 **warning** *pvaW*        variable 'DELTAVSAT_i' declared but not used in RHS, deleted (../va/cfet_pmos_lvt.va:580)

 **warning** *pvaW*        variable 'DELTAVSATCV_i' declared but not used in RHS, deleted (../va/cfet_pmos_lvt.va:581)

 **warning** *pvaW*        variable 'PTWG_a' declared but not used in RHS, deleted (../va/cfet_pmos_lvt.va:582)

 **warning** *pvaW*        variable 'PCLMG' declared but not used in RHS, deleted (../va/cfet_pmos_lvt.va:609)

 **warning** *pvaW*        variable 'PCLM' declared but not used in RHS, deleted (../va/cfet_pmos_lvt.va:614)

 **warning** *pvaW*        variable 'LPCLM' declared but not used in RHS, deleted (../va/cfet_pmos_lvt.va:615)

 **warning** *pvaW*        variable 'NPCLM' declared but not used in RHS, deleted (../va/cfet_pmos_lvt.va:616)

 **warning** *pvaW*        variable 'PPCLM' declared but not used in RHS, deleted (../va/cfet_pmos_lvt.va:617)

 **warning** *pvaW*        variable 'WPCLM' declared but not used in RHS, deleted (../va/cfet_pmos_lvt.va:618)

 **warning** *pvaW*        variable 'P2PCLM' declared but not used in RHS, deleted (../va/cfet_pmos_lvt.va:619)

 **warning** *pvaW*        variable 'PCLMCV_i' declared but not used in RHS, deleted (../va/cfet_pmos_lvt.va:621)

 **warning** *pvaW*        variable 'DVT1' declared but not used in RHS, deleted (../va/cfet_pmos_lvt.va:623)

 **warning** *pvaW*        variable 'LDVT1' declared but not used in RHS, deleted (../va/cfet_pmos_lvt.va:624)

 **warning** *pvaW*        variable 'NDVT1' declared but not used in RHS, deleted (../va/cfet_pmos_lvt.va:625)

 **warning** *pvaW*        variable 'PDVT1' declared but not used in RHS, deleted (../va/cfet_pmos_lvt.va:626)

 **warning** *pvaW*        variable 'WDVT1' declared but not used in RHS, deleted (../va/cfet_pmos_lvt.va:627)

 **warning** *pvaW*        variable 'P2DVT1' declared but not used in RHS, deleted (../va/cfet_pmos_lvt.va:628)

 **warning** *pvaW*        variable 'DVT1SS' declared but not used in RHS, deleted (../va/cfet_pmos_lvt.va:630)

 **warning** *pvaW*        variable 'LDVT1SS' declared but not used in RHS, deleted (../va/cfet_pmos_lvt.va:631)

 **warning** *pvaW*        variable 'NDVT1SS' declared but not used in RHS, deleted (../va/cfet_pmos_lvt.va:632)

 **warning** *pvaW*        variable 'PDVT1SS' declared but not used in RHS, deleted (../va/cfet_pmos_lvt.va:633)

 **warning** *pvaW*        variable 'WDVT1SS' declared but not used in RHS, deleted (../va/cfet_pmos_lvt.va:634)

 **warning** *pvaW*        variable 'P2DVT1SS' declared but not used in RHS, deleted (../va/cfet_pmos_lvt.va:635)

 **warning** *pvaW*        variable 'DSUB' declared but not used in RHS, deleted (../va/cfet_pmos_lvt.va:637)

 **warning** *pvaW*        variable 'LDSUB' declared but not used in RHS, deleted (../va/cfet_pmos_lvt.va:638)

 **warning** *pvaW*        variable 'NDSUB' declared but not used in RHS, deleted (../va/cfet_pmos_lvt.va:639)

 **warning** *pvaW*        variable 'PDSUB' declared but not used in RHS, deleted (../va/cfet_pmos_lvt.va:640)

 **warning** *pvaW*        variable 'WDSUB' declared but not used in RHS, deleted (../va/cfet_pmos_lvt.va:641)

 **warning** *pvaW*        variable 'P2DSUB' declared but not used in RHS, deleted (../va/cfet_pmos_lvt.va:642)

 **warning** *pvaW*        variable 'LPE0' declared but not used in RHS, deleted (../va/cfet_pmos_lvt.va:644)

 **warning** *pvaW*        variable 'LLPE0' declared but not used in RHS, deleted (../va/cfet_pmos_lvt.va:645)

 **warning** *pvaW*        variable 'NLPE0' declared but not used in RHS, deleted (../va/cfet_pmos_lvt.va:646)

 **warning** *pvaW*        variable 'PLPE0' declared but not used in RHS, deleted (../va/cfet_pmos_lvt.va:647)

 **warning** *pvaW*        variable 'WLPE0' declared but not used in RHS, deleted (../va/cfet_pmos_lvt.va:648)

 **warning** *pvaW*        variable 'P2LPE0' declared but not used in RHS, deleted (../va/cfet_pmos_lvt.va:649)

 **warning** *pvaW*        variable 'CDSC' declared but not used in RHS, deleted (../va/cfet_pmos_lvt.va:651)

 **warning** *pvaW*        variable 'LCDSC' declared but not used in RHS, deleted (../va/cfet_pmos_lvt.va:652)

 **warning** *pvaW*        variable 'NCDSC' declared but not used in RHS, deleted (../va/cfet_pmos_lvt.va:653)

 **warning** *pvaW*        variable 'PCDSC' declared but not used in RHS, deleted (../va/cfet_pmos_lvt.va:654)

 **warning** *pvaW*        variable 'WCDSC' declared but not used in RHS, deleted (../va/cfet_pmos_lvt.va:655)

 **warning** *pvaW*        variable 'P2CDSC' declared but not used in RHS, deleted (../va/cfet_pmos_lvt.va:656)

 **warning** *pvaW*        variable 'CDSCD' declared but not used in RHS, deleted (../va/cfet_pmos_lvt.va:658)

 **warning** *pvaW*        variable 'LCDSCD' declared but not used in RHS, deleted (../va/cfet_pmos_lvt.va:659)

 **warning** *pvaW*        variable 'NCDSCD' declared but not used in RHS, deleted (../va/cfet_pmos_lvt.va:660)

 **warning** *pvaW*        variable 'PCDSCD' declared but not used in RHS, deleted (../va/cfet_pmos_lvt.va:661)

 **warning** *pvaW*        variable 'WCDSCD' declared but not used in RHS, deleted (../va/cfet_pmos_lvt.va:662)

 **warning** *pvaW*        variable 'P2CDSCD' declared but not used in RHS, deleted (../va/cfet_pmos_lvt.va:663)

 **warning** *pvaW*        variable 'CIT' declared but not used in RHS, deleted (../va/cfet_pmos_lvt.va:665)

 **warning** *pvaW*        variable 'LCIT' declared but not used in RHS, deleted (../va/cfet_pmos_lvt.va:666)

 **warning** *pvaW*        variable 'NCIT' declared but not used in RHS, deleted (../va/cfet_pmos_lvt.va:667)

 **warning** *pvaW*        variable 'PCIT' declared but not used in RHS, deleted (../va/cfet_pmos_lvt.va:668)

 **warning** *pvaW*        variable 'WCIT' declared but not used in RHS, deleted (../va/cfet_pmos_lvt.va:669)

 **warning** *pvaW*        variable 'P2CIT' declared but not used in RHS, deleted (../va/cfet_pmos_lvt.va:670)

 **warning** *pvaW*        variable 'DVT0' declared but not used in RHS, deleted (../va/cfet_pmos_lvt.va:672)

 **warning** *pvaW*        variable 'LDVT0' declared but not used in RHS, deleted (../va/cfet_pmos_lvt.va:673)

 **warning** *pvaW*        variable 'NDVT0' declared but not used in RHS, deleted (../va/cfet_pmos_lvt.va:674)

 **warning** *pvaW*        variable 'PDVT0' declared but not used in RHS, deleted (../va/cfet_pmos_lvt.va:675)

 **warning** *pvaW*        variable 'WDVT0' declared but not used in RHS, deleted (../va/cfet_pmos_lvt.va:676)

 **warning** *pvaW*        variable 'P2DVT0' declared but not used in RHS, deleted (../va/cfet_pmos_lvt.va:677)

 **warning** *pvaW*        variable 'ETA0' declared but not used in RHS, deleted (../va/cfet_pmos_lvt.va:679)

 **warning** *pvaW*        variable 'LETA0' declared but not used in RHS, deleted (../va/cfet_pmos_lvt.va:680)

 **warning** *pvaW*        variable 'NETA0' declared but not used in RHS, deleted (../va/cfet_pmos_lvt.va:681)

 **warning** *pvaW*        variable 'PETA0' declared but not used in RHS, deleted (../va/cfet_pmos_lvt.va:682)

 **warning** *pvaW*        variable 'WETA0' declared but not used in RHS, deleted (../va/cfet_pmos_lvt.va:683)

 **warning** *pvaW*        variable 'P2ETA0' declared but not used in RHS, deleted (../va/cfet_pmos_lvt.va:684)

 **warning** *pvaW*        variable 'DVTP0' declared but not used in RHS, deleted (../va/cfet_pmos_lvt.va:686)

 **warning** *pvaW*        variable 'LDVTP0' declared but not used in RHS, deleted (../va/cfet_pmos_lvt.va:687)

 **warning** *pvaW*        variable 'NDVTP0' declared but not used in RHS, deleted (../va/cfet_pmos_lvt.va:688)

 **warning** *pvaW*        variable 'PDVTP0' declared but not used in RHS, deleted (../va/cfet_pmos_lvt.va:689)

 **warning** *pvaW*        variable 'WDVTP0' declared but not used in RHS, deleted (../va/cfet_pmos_lvt.va:690)

 **warning** *pvaW*        variable 'P2DVTP0' declared but not used in RHS, deleted (../va/cfet_pmos_lvt.va:691)

 **warning** *pvaW*        variable 'DVTP1' declared but not used in RHS, deleted (../va/cfet_pmos_lvt.va:693)

 **warning** *pvaW*        variable 'LDVTP1' declared but not used in RHS, deleted (../va/cfet_pmos_lvt.va:694)

 **warning** *pvaW*        variable 'NDVTP1' declared but not used in RHS, deleted (../va/cfet_pmos_lvt.va:695)

 **warning** *pvaW*        variable 'PDVTP1' declared but not used in RHS, deleted (../va/cfet_pmos_lvt.va:696)

 **warning** *pvaW*        variable 'WDVTP1' declared but not used in RHS, deleted (../va/cfet_pmos_lvt.va:697)

 **warning** *pvaW*        variable 'P2DVTP1' declared but not used in RHS, deleted (../va/cfet_pmos_lvt.va:698)

 **warning** *pvaW*        variable 'K1RSCE' declared but not used in RHS, deleted (../va/cfet_pmos_lvt.va:700)

 **warning** *pvaW*        variable 'LK1RSCE' declared but not used in RHS, deleted (../va/cfet_pmos_lvt.va:701)

 **warning** *pvaW*        variable 'NK1RSCE' declared but not used in RHS, deleted (../va/cfet_pmos_lvt.va:702)

 **warning** *pvaW*        variable 'PK1RSCE' declared but not used in RHS, deleted (../va/cfet_pmos_lvt.va:703)

 **warning** *pvaW*        variable 'WK1RSCE' declared but not used in RHS, deleted (../va/cfet_pmos_lvt.va:704)

 **warning** *pvaW*        variable 'P2K1RSCE' declared but not used in RHS, deleted (../va/cfet_pmos_lvt.va:705)

 **warning** *pvaW*        variable 'CKAPPAS_i' declared but not used in RHS, deleted (../va/cfet_pmos_lvt.va:712)

 **warning** *pvaW*        variable 'nnquaw3_4_1_cap' declared but not used in RHS, deleted (../va/cfet_pmos_lvt.va:905)

 **warning** *pvaW*        variable 'nnquaw3_4_2_cap' declared but not used in RHS, deleted (../va/cfet_pmos_lvt.va:906)

 **warning** *pvaW*        variable 'nnquaw3_4_3_cap' declared but not used in RHS, deleted (../va/cfet_pmos_lvt.va:907)

 **warning** *pvaW*        variable 'nnquaw3_5_1_cap' declared but not used in RHS, deleted (../va/cfet_pmos_lvt.va:908)

 **warning** *pvaW*        variable 'nnquaw3_5_2_cap' declared but not used in RHS, deleted (../va/cfet_pmos_lvt.va:909)

 **warning** *pvaW*        variable 'nnquaw3_5_3_cap' declared but not used in RHS, deleted (../va/cfet_pmos_lvt.va:910)

 **warning** *pvaW*        variable 'nnquaw3_6_1_cap' declared but not used in RHS, deleted (../va/cfet_pmos_lvt.va:911)

 **warning** *pvaW*        variable 'nnquaw3_6_2_cap' declared but not used in RHS, deleted (../va/cfet_pmos_lvt.va:912)

 **warning** *pvaW*        variable 'nnquaw3_6_3_cap' declared but not used in RHS, deleted (../va/cfet_pmos_lvt.va:913)

 **warning** *pvaW*        variable 'nnquaw3_7_1_cap' declared but not used in RHS, deleted (../va/cfet_pmos_lvt.va:914)

 **warning** *pvaW*        variable 'nnquaw3_7_2_cap' declared but not used in RHS, deleted (../va/cfet_pmos_lvt.va:915)

 **warning** *pvaW*        variable 'nnquaw3_7_3_cap' declared but not used in RHS, deleted (../va/cfet_pmos_lvt.va:916)

 **warning** *pvaW*        variable 'nnquab3_4_cap' declared but not used in RHS, deleted (../va/cfet_pmos_lvt.va:932)

 **warning** *pvaW*        variable 'nnquab3_5_cap' declared but not used in RHS, deleted (../va/cfet_pmos_lvt.va:933)

 **warning** *pvaW*        variable 'nnquab3_6_cap' declared but not used in RHS, deleted (../va/cfet_pmos_lvt.va:934)

 **warning** *pvaW*        variable 'nnquab3_7_cap' declared but not used in RHS, deleted (../va/cfet_pmos_lvt.va:935)

 **warning** *pvaW*        variable 'gidl_output6' initialized but not used in RHS, deleted (../va/cfet_pmos_lvt.va:1453)

 **warning** *pvaW*        variable 'gidl_output7' initialized but not used in RHS, deleted (../va/cfet_pmos_lvt.va:1454)

 **warning** *pvaW*        variable 'cv_output15' initialized but not used in RHS, deleted (../va/cfet_pmos_lvt.va:2288)

 **warning** *pvaW*        variable 'CGG' initialized but not used in RHS, deleted (../va/cfet_pmos_lvt.va:2744)

 **warning** *pvaW*        variable 'CGD' initialized but not used in RHS, deleted (../va/cfet_pmos_lvt.va:2745)

 **warning** *pvaW*        variable 'CGS' initialized but not used in RHS, deleted (../va/cfet_pmos_lvt.va:2746)

 **warning** *pvaW*        variable 'CDG' initialized but not used in RHS, deleted (../va/cfet_pmos_lvt.va:2747)

 **warning** *pvaW*        variable 'CDD' initialized but not used in RHS, deleted (../va/cfet_pmos_lvt.va:2748)

 **warning** *pvaW*        variable 'CDS' initialized but not used in RHS, deleted (../va/cfet_pmos_lvt.va:2749)

 **warning** *pvaW*        variable 'CSG' initialized but not used in RHS, deleted (../va/cfet_pmos_lvt.va:2750)

 **warning** *pvaW*        variable 'CSD' initialized but not used in RHS, deleted (../va/cfet_pmos_lvt.va:2751)

 **warning** *pvaW*        variable 'CSS' initialized but not used in RHS, deleted (../va/cfet_pmos_lvt.va:2752)

 **warning** *pvaW*        variable 'tmp1_pku' initialized but not used in RHS, deleted (../va/cfet_pmos_lvt.va:2035)

 **warning** *pvaW*        variable 'tmp2_pku' initialized but not used in RHS, deleted (../va/cfet_pmos_lvt.va:2036)

 **warning** *pvaW*        variable 'tmp3_pku' initialized but not used in RHS, deleted (../va/cfet_pmos_lvt.va:2037)

 **warning** *pvaW*        variable 'tmp4_pku' initialized but not used in RHS, deleted (../va/cfet_pmos_lvt.va:2038)

 **warning** *pvaW*        variable 'tmp5_pku' initialized but not used in RHS, deleted (../va/cfet_pmos_lvt.va:2039)

 **warning** *pvaW*        variable 'vfbsd1' declared but not used in RHS, deleted (../va/cfet_pmos_lvt.va:1200)

 **warning** *pvaW*        variable 'vgs_a' declared but not used in RHS, deleted (../va/cfet_pmos_lvt.va:1200)

 **warning** *pvaW*        variable 'vgd_a' declared but not used in RHS, deleted (../va/cfet_pmos_lvt.va:1200)

 **warning** *pvaW*        variable 'WeffB' initialized but not used in RHS, deleted (../va/cfet_pmos_lvt.va:2362)

 **warning** *pvaW*        variable 'd1' declared but not used in RHS, deleted (../va/cfet_pmos_lvt.va:1204)

 **warning** *pvaW*        variable 'd2' declared but not used in RHS, deleted (../va/cfet_pmos_lvt.va:1204)

 **warning** *pvaW*        variable 'd3' declared but not used in RHS, deleted (../va/cfet_pmos_lvt.va:1204)

 **warning** *pvaW*        variable 'p1' declared but not used in RHS, deleted (../va/cfet_pmos_lvt.va:1204)

 **warning** *pvaW*        variable 'p2' declared but not used in RHS, deleted (../va/cfet_pmos_lvt.va:1204)

 **warning** *pvaW*        variable 'p3' declared but not used in RHS, deleted (../va/cfet_pmos_lvt.va:1204)

 **warning** *pvaW*        variable 'Tp1' declared but not used in RHS, deleted (../va/cfet_pmos_lvt.va:1204)

 **warning** *pvaW*        variable 'Tp2' declared but not used in RHS, deleted (../va/cfet_pmos_lvt.va:1204)

 **warning** *pvaW*        variable 'Tp3' declared but not used in RHS, deleted (../va/cfet_pmos_lvt.va:1204)

 **warning** *pvaW*        variable 'Wp1' declared but not used in RHS, deleted (../va/cfet_pmos_lvt.va:1204)

 **warning** *pvaW*        variable 'Wp2' declared but not used in RHS, deleted (../va/cfet_pmos_lvt.va:1204)

 **warning** *pvaW*        variable 'Wp3' declared but not used in RHS, deleted (../va/cfet_pmos_lvt.va:1204)

 **warning** *pvaW*        variable 'VnD1' declared but not used in RHS, deleted (../va/cfet_pmos_lvt.va:1212)

 **warning** *pvaW*        variable 'qndnf1' declared but not used in RHS, deleted (../va/cfet_pmos_lvt.va:1212)

 **warning** *pvaW*        variable 'VnD2' declared but not used in RHS, deleted (../va/cfet_pmos_lvt.va:1212)

 **warning** *pvaW*        variable 'qndnf2' declared but not used in RHS, deleted (../va/cfet_pmos_lvt.va:1212)

 **warning** *pvaW*        variable 'VnD3' declared but not used in RHS, deleted (../va/cfet_pmos_lvt.va:1212)

 **warning** *pvaW*        variable 'qndnf3' declared but not used in RHS, deleted (../va/cfet_pmos_lvt.va:1212)

 **warning** *pvaW*        variable 'nc3d0' declared but not used in RHS, deleted (../va/cfet_pmos_lvt.va:1212)

 **warning** *pvaW*        variable 'nc3d' declared but not used in RHS, deleted (../va/cfet_pmos_lvt.va:1212)

 **warning** *pvaW*        variable 'ncq' declared but not used in RHS, deleted (../va/cfet_pmos_lvt.va:1212)

 **warning** *pvaW*        variable 'QT0' declared but not used in RHS, deleted (../va/cfet_pmos_lvt.va:1212)

 **warning** *pvaW*        variable 'QT1' declared but not used in RHS, deleted (../va/cfet_pmos_lvt.va:1212)

 **warning** *pvaW*        variable 'ne2h' declared but not used in RHS, deleted (../va/cfet_pmos_lvt.va:1212)

 **warning** *pvaW*        variable 'pe2h' declared but not used in RHS, deleted (../va/cfet_pmos_lvt.va:1212)

 **warning** *pvaW*        variable 'ne3h' declared but not used in RHS, deleted (../va/cfet_pmos_lvt.va:1212)

 **warning** *pvaW*        variable 'pe3h' declared but not used in RHS, deleted (../va/cfet_pmos_lvt.va:1212)

 **warning** *pvaW*        variable 'nc1l0' declared but not used in RHS, deleted (../va/cfet_pmos_lvt.va:1212)

 **warning** *pvaW*        variable 'pnc1l' declared but not used in RHS, deleted (../va/cfet_pmos_lvt.va:1212)

 **warning** *pvaW*        variable 'nc2l0' declared but not used in RHS, deleted (../va/cfet_pmos_lvt.va:1212)

 **warning** *pvaW*        variable 'pnc2l' declared but not used in RHS, deleted (../va/cfet_pmos_lvt.va:1212)

 **warning** *pvaW*        variable 'nc3l0' declared but not used in RHS, deleted (../va/cfet_pmos_lvt.va:1212)

 **warning** *pvaW*        variable 'pnc3l' declared but not used in RHS, deleted (../va/cfet_pmos_lvt.va:1212)

 **warning** *pvaW*        variable 'qe2n' declared but not used in RHS, deleted (../va/cfet_pmos_lvt.va:1212)

 **warning** *pvaW*        variable 'qe3n' declared but not used in RHS, deleted (../va/cfet_pmos_lvt.va:1212)

 **warning** *pvaW*        variable 'qe2' declared but not used in RHS, deleted (../va/cfet_pmos_lvt.va:1212)

 **warning** *pvaW*        variable 'qe3' declared but not used in RHS, deleted (../va/cfet_pmos_lvt.va:1212)

 **warning** *pvaW*        variable 'nc1l' declared but not used in RHS, deleted (../va/cfet_pmos_lvt.va:1212)

 **warning** *pvaW*        variable 'nc1ln' declared but not used in RHS, deleted (../va/cfet_pmos_lvt.va:1212)

 **warning** *pvaW*        variable 'nc1' declared but not used in RHS, deleted (../va/cfet_pmos_lvt.va:1212)

 **warning** *pvaW*        variable 'nc2l' declared but not used in RHS, deleted (../va/cfet_pmos_lvt.va:1212)

 **warning** *pvaW*        variable 'nc2ln' declared but not used in RHS, deleted (../va/cfet_pmos_lvt.va:1212)

 **warning** *pvaW*        variable 'nc2' declared but not used in RHS, deleted (../va/cfet_pmos_lvt.va:1212)

 **warning** *pvaW*        variable 'nc3l' declared but not used in RHS, deleted (../va/cfet_pmos_lvt.va:1212)

 **warning** *pvaW*        variable 'nc3ln' declared but not used in RHS, deleted (../va/cfet_pmos_lvt.va:1212)

 **warning** *pvaW*        variable 'nc3' declared but not used in RHS, deleted (../va/cfet_pmos_lvt.va:1212)

 **warning** *pvaW*        variable 'qnd10' declared but not used in RHS, deleted (../va/cfet_pmos_lvt.va:1212)

 **warning** *pvaW*        variable 'qnd20' declared but not used in RHS, deleted (../va/cfet_pmos_lvt.va:1212)

 **warning** *pvaW*        variable 'qnd30' declared but not used in RHS, deleted (../va/cfet_pmos_lvt.va:1212)

 **warning** *pvaW*        variable 'GM' initialized but not used in RHS, deleted (../va/cfet_pmos_lvt.va:2741)

 **warning** *pvaW*        variable 'GDS' initialized but not used in RHS, deleted (../va/cfet_pmos_lvt.va:2742)

 **warning** *pvaW*        variable 'qndd1' declared but not used in RHS, deleted (../va/cfet_pmos_lvt.va:1216)

 **warning** *pvaW*        variable 'qndd2' declared but not used in RHS, deleted (../va/cfet_pmos_lvt.va:1216)

 **warning** *pvaW*        variable 'qndd3' declared but not used in RHS, deleted (../va/cfet_pmos_lvt.va:1216)

 **warning** *pvaW*        variable 'QT2' declared but not used in RHS, deleted (../va/cfet_pmos_lvt.va:1235)

 **warning** *pvaW*        variable 'QT3' declared but not used in RHS, deleted (../va/cfet_pmos_lvt.va:1235)

 **warning** *pvaW*        variable 'QT4' declared but not used in RHS, deleted (../va/cfet_pmos_lvt.va:1235)

 **warning** *pvaW*        variable 'qnds1' declared but not used in RHS, deleted (../va/cfet_pmos_lvt.va:1235)

 **warning** *pvaW*        variable 'QT5' declared but not used in RHS, deleted (../va/cfet_pmos_lvt.va:1235)

 **warning** *pvaW*        variable 'QT6' declared but not used in RHS, deleted (../va/cfet_pmos_lvt.va:1235)

 **warning** *pvaW*        variable 'QT7' declared but not used in RHS, deleted (../va/cfet_pmos_lvt.va:1235)

 **warning** *pvaW*        variable 'qnds2' declared but not used in RHS, deleted (../va/cfet_pmos_lvt.va:1235)

 **warning** *pvaW*        variable 'QT8' declared but not used in RHS, deleted (../va/cfet_pmos_lvt.va:1235)

 **warning** *pvaW*        variable 'QT9' declared but not used in RHS, deleted (../va/cfet_pmos_lvt.va:1235)

 **warning** *pvaW*        variable 'QT10' declared but not used in RHS, deleted (../va/cfet_pmos_lvt.va:1235)

 **warning** *pvaW*        variable 'qnds3' declared but not used in RHS, deleted (../va/cfet_pmos_lvt.va:1235)

 **warning** *pvaW*        variable 'TOXG1' declared but not used in RHS, deleted (../va/cfet_pmos_lvt.va:1235)

 **warning** *pvaW*        variable 'igtemp' declared but not used in RHS, deleted (../va/cfet_pmos_lvt.va:1235)

 **warning** *pvaW*        variable 'Tox_ratio' declared but not used in RHS, deleted (../va/cfet_pmos_lvt.va:1235)

 **warning** *pvaW*        variable 'T0_g' declared but not used in RHS, deleted (../va/cfet_pmos_lvt.va:1235)

 **warning** *pvaW*        variable 'igc' declared but not used in RHS, deleted (../va/cfet_pmos_lvt.va:1235)

 **warning** *pvaW*        variable 'igs' declared but not used in RHS, deleted (../va/cfet_pmos_lvt.va:1235)

 **warning** *pvaW*        variable 'igd' declared but not used in RHS, deleted (../va/cfet_pmos_lvt.va:1235)

 **warning** *pvaW*        variable 'ig' declared but not used in RHS, deleted (../va/cfet_pmos_lvt.va:1235)

 **warning** *pvaW*        variable 'vgd' declared but not used in RHS, deleted (../va/cfet_pmos_lvt.va:1235)

 **warning** *pvaW*        variable 'NTOX_i' declared but not used in RHS, deleted (../va/cfet_pmos_lvt.va:1241)

 **warning** *pvaW*        variable 'mut0' declared but not used in RHS, deleted (../va/cfet_pmos_lvt.va:1241)

 **warning** *pvaW*        variable 'mut1' declared but not used in RHS, deleted (../va/cfet_pmos_lvt.va:1241)

 **warning** *pvaW*        variable 'mut2' declared but not used in RHS, deleted (../va/cfet_pmos_lvt.va:1241)

 **warning** *pvaW*        variable 'mut3' declared but not used in RHS, deleted (../va/cfet_pmos_lvt.va:1241)

 **warning** *pvaW*        variable 'mut4' declared but not used in RHS, deleted (../va/cfet_pmos_lvt.va:1241)

 **warning** *pvaW*        variable 'mut5' declared but not used in RHS, deleted (../va/cfet_pmos_lvt.va:1241)

 **warning** *pvaW*        variable 'mut6' declared but not used in RHS, deleted (../va/cfet_pmos_lvt.va:1241)

 **warning** *pvaW*        variable 'ids_tmp' initialized but not used in RHS, deleted (../va/cfet_pmos_lvt.va:2691)

 **info** *pvaI*        port 'B' at 4 declared, but not used

 **info** *pvaI*        generated 0 flow node(s) during compilation.

 **info** *pvaI* #### Total 4376 line-size(s), 272/2853 expr(s), 8 contr(s), 0 init(s), 1985 behav(s), 8 port(s)

 Loading pVA library C:\Users\Tengfei\Desktop\Project_DTCO\AutoLDM\Hspice\iv\results\standard_sram_tran\standard_sram_tran.pvadir\pvaRTL_win64.dll...
1****** HSPICE -- P-2019.06-SP1-1 win64 (Sep 27 2019) ******                    
 ******  
 ***********************************************************************

 ****** circuit name directory
 circuit number to circuit name directory
   number circuitname                     definition         multiplier
        0 main circuit
        1 xsram.                          sram_6t_standard   1.00 
        2 xsram.xpg1.                     cfet_nmos_lvt(va)
                                                                 1.00 
        3 xsram.xpg2.                     cfet_nmos_lvt(va)
                                                                 1.00 
        4 xsram.xpd1.                     cfet_nmos_lvt(va)
                                                                 1.00 
        5 xsram.xpd2.                     cfet_nmos_lvt(va)
                                                                 1.00 
        6 xsram.xpu1.                     cfet_pmos_lvt(va)
                                                                 1.00 
        7 xsram.xpu2.                     cfet_pmos_lvt(va)
                                                                 1.00 
 **info** *pvaI* Creating VA module (cfet_pmos_lvt) for instance XSRAM.XPU2 with gmd reduction

 **info** *pvaI*        termCount=4 diwSize=16 probeSize=1086 Qsize=2 Isize=1

 End of GMD creation on Thu Jul  9 10:18:46 2026	


 **info** *pvaI* Creating VA module (cfet_nmos_lvt) for instance XSRAM.XPD2 with gmd reduction

 **info** *pvaI*        termCount=4 diwSize=16 probeSize=1086 Qsize=2 Isize=1

 End of GMD creation on Thu Jul  9 10:18:46 2026	


  
      
 *****************************************************************
 ******  option summary
 ******
 runlvl  = 5         bypass  = 2.0000    
  **warning** Empty row/column at node (xsram.pu1_qb_gate)
  
  **warning** Empty row/column at node (xsram.pu2_q_gate)
  
  **warning** Empty row/column at node (xsram.pu2_vdd_sd)
  
  Opening plot unit= 79
 file=C:\Users\Tengfei\Desktop\Project_DTCO\AutoLDM\Hspice\iv\results\standard_sram_tran\standard_sram_tran.pa0

 End of pVA setup    on Thu Jul  9 10:18:46 2026	


 Begin of pVA simulation on Thu Jul  9 10:18:46 2026	


 **info** dc convergence successful at Newton-Raphson method 
 ******  
 ***********************************************************************

 ****** operating point information tnom=  25.000 temp=  25.000 ******
 ****** operating point status is all       simulation time is   0.000e+00
    node    =voltage      node    =voltage      node    =voltage

 +0:bl      = 2.231e-01 0:bl_drv  = 7.000e-01 0:blb     = 1.045e-06
 +0:blb_drv = 7.000e-01 0:q       = 7.000e-01 0:q_force = 0.000e+00
 +0:qb      = 1.050e-06 0:qb_force= 0.000e+00 0:vdd     = 7.000e-01
 +0:vss     = 0.000e+00 0:wl      = 0.000e+00 1:bl_port = 2.231e-01
 +1:blb_port= 1.045e-06 1:pd1_qb_g= 1.050e-06 1:pd1_vss_= 4.948e-08
 +1:pd2_pg2_= 1.043e-06 1:pd2_q_ga= 7.000e-01 1:pd2_vss_= 3.067e-08
 +1:pg1_bl_s= 2.231e-01 1:pg1_pd1_= 7.000e-01 1:pg1_wl_g= 0.000e+00
 +1:pg2_blb_= 1.045e-06 1:pg2_wl_g= 0.000e+00 1:pu1_q_sd= 7.000e-01
 +1:pu1_qb_g= 1.050e-06 1:pu1_vdd_= 7.000e-01 1:pu2_q_ga= 7.000e-01
 +1:pu2_qb_s= 1.068e-06 1:pu2_vdd_= 7.000e-01 1:q_node  = 7.000e-01
 +1:qb_node = 1.050e-06 1:vdd_port= 7.000e-01 1:vss_port= 1.975e-12
 +1:wl_port = 0.000e+00


 **** voltage sources

 subckt                                                                    
 element  0:vbl_drv  0:vblb_drv 0:vdd_src  0:vqbf     0:vqf      0:vss_src 
  volts    7.000e-01  7.000e-01  7.000e-01  0.000e+00  0.000e+00  0.000e+00
  current -7.000e-13 -7.001e-13 -1.983e-09  1.050e-22  7.000e-17  1.975e-09
  power    4.900e-13  4.900e-13  1.388e-09  0.000e+00  0.000e+00  0.000e+00

 subckt             
 element  0:vwl_drv 
  volts    0.000e+00
  current  0.000e+00
  power    0.000e+00

     total voltage source power dissipation=  1.389e-09       watts



 **** resistors

 subckt                                               xsram      xsram     
 element  0:rbl_drv  0:rblb_drv 0:rq_force 0:rqb_forc 1:rport_bl 1:rport_bl
  r value  1.000e+16  1.000e+16  1.000e+16  1.000e+16  1.000e-03  1.000e-03
  v drop  -4.769e-01 -7.000e-01  7.000e-01  1.050e-06 -2.220e-16  6.903e-20
  current -4.769e-17 -7.000e-17  7.000e-17  1.050e-22 -2.220e-13  6.903e-17
  power    2.274e-17  4.900e-17  4.900e-17  1.102e-28  4.930e-29  4.766e-36

 subckt   xsram      xsram      xsram      xsram      xsram      xsram     
 element  1:rport_wl 1:rport_q  1:rport_qb 1:rport_vd 1:rport_vs 1:rmap_bl_
  r value  1.000e-03  1.000e-03  1.000e-03  1.000e-03  1.000e-03  2.195e+01
  v drop   0.000e+00 -6.661e-16 -1.059e-21  1.982e-12 -1.975e-12 -9.797e-12
  current  0.000e+00 -6.661e-13 -1.059e-18  1.982e-09 -1.975e-09 -4.462e-13
  power    0.000e+00  4.437e-28  1.121e-39  3.930e-21  3.902e-21  4.371e-24

 subckt   xsram      xsram      xsram      xsram      xsram      xsram     
 element  1:rmap_blb 1:rmap_wl_ 1:rmap_wl_ 1:rmap_wl_ 1:rmap_q_q 1:rmap_q_q
  r value  2.568e+01  7.032e+00  7.032e+00  1.319e+01  5.248e+01  1.343e+02
  v drop   1.742e-15  0.000e+00  0.000e+00  0.000e+00  2.167e-08 -5.373e-08
  current  6.784e-17  0.000e+00  0.000e+00  0.000e+00  4.128e-10 -4.000e-10
  power    1.182e-31  0.000e+00  0.000e+00  0.000e+00  8.944e-18  2.150e-17

 subckt   xsram      xsram      xsram      xsram      xsram      xsram     
 element  1:rmap_q_q 1:rmap_q_q 1:rmap_q_p 1:rmap_q_p 1:rmap_q_p 1:rmap_q_p
  r value  8.509e+01  8.509e+01  1.319e+02  9.502e+01  9.502e+01  2.194e+02
  v drop  -6.034e-10 -6.034e-10 -7.540e-08 -2.227e-08 -2.227e-08  5.313e-08
  current -7.091e-12 -7.091e-12 -5.713e-10 -2.344e-10 -2.344e-10  2.421e-10
  power    4.279e-21  4.279e-21  4.307e-17  5.219e-18  5.219e-18  1.286e-17

 subckt   xsram      xsram      xsram      xsram      xsram      xsram     
 element  1:rmap_q_p 1:rmap_qb_ 1:rmap_qb_ 1:rmap_qb_ 1:rmap_qb_ 1:rmap_qb_
  r value  2.194e+02  5.248e+01  1.343e+02  8.509e+01  8.509e+01  1.323e+02
  v drop   5.313e-08  6.493e-09 -1.789e-08  4.039e-10  4.039e-10 -2.439e-08
  current  2.421e-10  1.237e-10 -1.332e-10  4.747e-12  4.747e-12 -1.842e-10
  power    1.286e-17  8.034e-19  2.384e-18  1.917e-21  1.917e-21  4.493e-18

 subckt   xsram      xsram      xsram      xsram      xsram      xsram     
 element  1:rmap_qb_ 1:rmap_qb_ 1:rmap_qb_ 1:rmap_qb_ 1:rmap_vdd 1:rmap_vdd
  r value  5.638e+01  5.638e+01  1.772e+02  1.772e+02  3.850e+01  3.850e+01
  v drop  -6.089e-09 -6.089e-09  1.830e-08  1.830e-08  3.816e-08  3.816e-08
  current -1.080e-10 -1.080e-10  1.033e-10  1.033e-10  9.909e-10  9.909e-10
  power    6.577e-19  6.577e-19  1.889e-18  1.889e-18  3.781e-17  3.781e-17

 subckt   xsram      xsram      xsram     
 element  1:rmap_vss 1:rmap_vss 1:rmap_vss
  r value  4.056e+01  4.056e+01  8.113e+01
  v drop  -4.948e-08 -3.066e-08  1.881e-08
  current -1.220e-09 -7.558e-10  2.319e-10
  power    6.034e-17  2.318e-17  4.362e-18


          ***** job concluded
 ******  
 ***********************************************************************

 ****** job statistics summary tnom=  25.000 temp=  25.000 ******

  ******  HSPICE Threads Information  ******

  Command Line Threads Count :     1
  Available CPU Count        :    20
  Actual Threads Count       :     1


  ******  Circuit Statistics  ******
  # nodes       =      35 # elements   =      82
  # resistors   =      44 # capacitors =      25 # inductors   =       0
  # mutual_inds =       0 # vccs       =       0 # vcvs        =       0
  # cccs        =       0 # ccvs       =       0 # volt_srcs   =       7
  # curr_srcs   =       0 # diodes     =       0 # bjts        =       0
  # jfets       =       0 # mosfets    =       0 # U elements  =       0
  # T elements  =       0 # W elements =       0 # B elements  =       0
  # S elements  =       0 # P elements =       0 # va device   =       6
  # vector_srcs =       0 # N elements =       0


  ******  Runtime Statistics (seconds)  ******

  analysis           time    # points   tot. iter  conv.iter
  op point           0.00           1          18
  readin             2.43
  errchk             0.01
  setup              0.00
  output             0.00


           peak memory used         83.75 megabytes
           total cpu time            2.45 seconds
           total elapsed time        2.49 seconds
           job started at     10:18:44 07/09/2026
           job ended   at     10:18:46 07/09/2026
 Loading pVA library C:\Users\Tengfei\Desktop\Project_DTCO\AutoLDM\Hspice\iv\results\standard_sram_tran\standard_sram_tran.pvadir\pvaRTL_win64.dll...
 ******  
 read_q1

 ****** circuit name directory
 circuit number to circuit name directory
   number circuitname                     definition         multiplier
        0 main circuit
        1 xsram.                          sram_6t_standard   1.00 
        2 xsram.xpg1.                     cfet_nmos_lvt(va)
                                                                 1.00 
        3 xsram.xpg2.                     cfet_nmos_lvt(va)
                                                                 1.00 
        4 xsram.xpd1.                     cfet_nmos_lvt(va)
                                                                 1.00 
        5 xsram.xpd2.                     cfet_nmos_lvt(va)
                                                                 1.00 
        6 xsram.xpu1.                     cfet_pmos_lvt(va)
                                                                 1.00 
        7 xsram.xpu2.                     cfet_pmos_lvt(va)
                                                                 1.00 
  **info** (standard_sram_tran.sp:150) DC voltage reset to initial transient source value in source 0:vwl_drv. new dc=0.0000D+00
 **info** *pvaI* Creating VA module (cfet_pmos_lvt) for instance XSRAM.XPU2 with gmd reduction

 **info** *pvaI*        termCount=4 diwSize=16 probeSize=1086 Qsize=2 Isize=1

 End of GMD creation on Thu Jul  9 10:18:46 2026	


 **info** *pvaI* Creating VA module (cfet_nmos_lvt) for instance XSRAM.XPD2 with gmd reduction

 **info** *pvaI*        termCount=4 diwSize=16 probeSize=1086 Qsize=2 Isize=1

 End of GMD creation on Thu Jul  9 10:18:46 2026	


  **warning** (standard_sram_tran.sp:151) Duplicate .ic/.nodeset declaration for node q. Taking the .ic value 0.700
  
      

 **warning** an operating point request at time=0 and a transient uic results in no operating point


 *****************************************************************
 ******  option summary
 ******
 runlvl  = 5         bypass  = 2.0000    
  **warning** Empty row/column at node (xsram.pu1_qb_gate)
  
  **warning** Empty row/column at node (xsram.pu2_q_gate)
  
  **warning** Empty row/column at node (xsram.pu2_vdd_sd)
  
  Opening plot unit= 79
 file=C:\Users\Tengfei\Desktop\Project_DTCO\AutoLDM\Hspice\iv\results\standard_sram_tran\standard_sram_tran.pa1


 **warning** an operating point request at time=0 and a transient uic results in no operating point


 End of pVA setup    on Thu Jul  9 10:18:46 2026	


 Begin of pVA simulation on Thu Jul  9 10:18:46 2026	


 **info** *pvaI* minimum timestep = 1e-21

 **warning** *pvaW* (31) FPE: Encountered numerical NaN with node (G, S) (../va/cfet_nmos_lvt.va:2725) (ALTER #1)

 **warning** *pvaW*           in xsram.xpg1(cfet_nmos_lvt)

 **warning** *pvaW* (31)      For a complete list of FPE warnings, please setenv PVA_ENABLE_FPE3 2

 **warning** *pvaW* (31)      For debugging, please use $strobe to print the value of signal.


 ******
 read_q1

 ****** transient analysis tnom=  25.000 temp=  25.000 ******
x

 time         voltage    voltage    voltage    voltage   
             bl         blb        wl         q          
  0.0000e+00  7.000e-01  7.000e-01  0.000e+00  7.000e-01 
  1.0000e-12  6.965e-01  6.964e-01  0.000e+00  5.693e-01 
  2.0000e-12  6.965e-01  6.964e-01  0.000e+00  5.967e-01 
  3.0000e-12  6.965e-01  6.964e-01  0.000e+00  6.187e-01 
  4.0000e-12  6.965e-01  6.964e-01  0.000e+00  6.374e-01 
  5.0000e-12  6.965e-01  6.964e-01  0.000e+00  6.524e-01 
  6.0000e-12  6.965e-01  6.964e-01  0.000e+00  6.647e-01 
  7.0000e-12  6.965e-01  6.964e-01  0.000e+00  6.740e-01 
  8.0000e-12  6.965e-01  6.964e-01  0.000e+00  6.805e-01 
  9.0000e-12  6.965e-01  6.964e-01  0.000e+00  6.861e-01 
  1.0000e-11  6.965e-01  6.964e-01  0.000e+00  6.896e-01 
  1.1000e-11  6.965e-01  6.964e-01  0.000e+00  6.926e-01 
  1.2000e-11  6.965e-01  6.964e-01  0.000e+00  6.946e-01 
  1.3000e-11  6.965e-01  6.964e-01  0.000e+00  6.961e-01 
  1.4000e-11  6.965e-01  6.964e-01  0.000e+00  6.972e-01 
  1.5000e-11  6.965e-01  6.964e-01  0.000e+00  6.981e-01 
  1.6000e-11  6.965e-01  6.964e-01  0.000e+00  6.986e-01 
  1.7000e-11  6.965e-01  6.964e-01  0.000e+00  6.991e-01 
  1.8000e-11  6.965e-01  6.964e-01  0.000e+00  6.994e-01 
  1.9000e-11  6.965e-01  6.964e-01  0.000e+00  6.996e-01 
  2.0000e-11  6.965e-01  6.964e-01  0.000e+00  6.998e-01 
  2.1000e-11  6.965e-01  6.964e-01  0.000e+00  6.999e-01 
  2.2000e-11  6.965e-01  6.964e-01  0.000e+00  6.999e-01 
  2.3000e-11  6.965e-01  6.964e-01  0.000e+00  7.000e-01 
  2.4000e-11  6.965e-01  6.964e-01  0.000e+00  7.000e-01 
  2.5000e-11  6.965e-01  6.964e-01  0.000e+00  7.000e-01 
  2.6000e-11  6.965e-01  6.964e-01  0.000e+00  7.001e-01 
  2.7000e-11  6.965e-01  6.964e-01  0.000e+00  7.001e-01 
[...]
  1.7010e-09  3.890e-06 -1.981e-09 -7.000e-13 -7.000e-13 
  1.7020e-09  3.890e-06 -1.981e-09 -7.000e-13 -7.000e-13 
  1.7030e-09  3.890e-06 -1.981e-09 -7.000e-13 -7.000e-13 
  1.7040e-09  3.890e-06 -1.981e-09 -7.000e-13 -7.000e-13 
  1.7050e-09  3.890e-06 -1.981e-09 -7.000e-13 -7.000e-13 
  1.7060e-09  3.890e-06 -1.981e-09 -7.000e-13 -7.000e-13 
  1.7070e-09  3.890e-06 -1.981e-09 -7.000e-13 -7.000e-13 
  1.7080e-09  3.890e-06 -1.981e-09 -7.000e-13 -7.000e-13 
  1.7090e-09  3.890e-06 -1.981e-09 -7.000e-13 -7.000e-13 
  1.7100e-09  3.890e-06 -1.981e-09 -7.000e-13 -7.000e-13 
  1.7110e-09  3.890e-06 -1.981e-09 -7.000e-13 -7.000e-13 
  1.7120e-09  3.890e-06 -1.981e-09 -7.000e-13 -7.000e-13 
  1.7130e-09  3.890e-06 -1.981e-09 -7.000e-13 -7.000e-13 
  1.7140e-09  3.890e-06 -1.981e-09 -7.000e-13 -7.000e-13 
  1.7150e-09  3.890e-06 -1.981e-09 -7.000e-13 -7.000e-13 
  1.7160e-09  3.890e-06 -1.981e-09 -7.000e-13 -7.000e-13 
  1.7170e-09  3.890e-06 -1.981e-09 -7.000e-13 -7.000e-13 
  1.7180e-09  3.890e-06 -1.981e-09 -7.000e-13 -7.000e-13 
  1.7190e-09  3.890e-06 -1.981e-09 -7.000e-13 -7.000e-13 
  1.7200e-09  3.890e-06 -1.981e-09 -7.000e-13 -7.000e-13 
  1.7210e-09  3.890e-06 -1.981e-09 -7.000e-13 -7.000e-13 
  1.7220e-09  3.890e-06 -1.981e-09 -7.000e-13 -7.000e-13 
  1.7230e-09  3.890e-06 -1.981e-09 -7.000e-13 -7.000e-13 
  1.7240e-09  3.890e-06 -1.981e-09 -7.000e-13 -7.000e-13 
  1.7250e-09  3.890e-06 -1.981e-09 -7.000e-13 -7.000e-13 
  1.7260e-09  3.890e-06 -1.981e-09 -7.000e-13 -7.000e-13 
  1.7270e-09  3.890e-06 -1.981e-09 -7.000e-13 -7.000e-13 
  1.7280e-09  3.890e-06 -1.981e-09 -7.000e-13 -7.000e-13 
  1.7290e-09  3.890e-06 -1.981e-09 -7.000e-13 -7.000e-13 
  1.7300e-09  3.890e-06 -1.981e-09 -7.000e-13 -7.000e-13 
  1.7310e-09  3.890e-06 -1.981e-09 -7.000e-13 -7.000e-13 
  1.7320e-09  3.890e-06 -1.981e-09 -7.000e-13 -7.000e-13 
  1.7330e-09  3.890e-06 -1.981e-09 -7.000e-13 -7.000e-13 
  1.7340e-09  3.890e-06 -1.981e-09 -7.000e-13 -7.000e-13 
  1.7350e-09  3.890e-06 -1.981e-09 -7.000e-13 -7.000e-13 
  1.7360e-09  3.890e-06 -1.981e-09 -7.000e-13 -7.000e-13 
  1.7370e-09  3.890e-06 -1.981e-09 -7.000e-13 -7.000e-13 
  1.7380e-09  3.890e-06 -1.981e-09 -7.000e-13 -7.000e-13 
  1.7390e-09  3.890e-06 -1.981e-09 -7.000e-13 -7.000e-13 
  1.7400e-09  3.890e-06 -1.981e-09 -7.000e-13 -7.000e-13 
  1.7410e-09  3.890e-06 -1.981e-09 -7.000e-13 -7.000e-13 
  1.7420e-09  3.890e-06 -1.981e-09 -7.000e-13 -7.000e-13 
  1.7430e-09  3.890e-06 -1.981e-09 -7.000e-13 -7.000e-13 
  1.7440e-09  3.890e-06 -1.981e-09 -7.000e-13 -7.000e-13 
  1.7450e-09  3.890e-06 -1.981e-09 -7.000e-13 -7.000e-13 
  1.7460e-09  3.890e-06 -1.981e-09 -7.000e-13 -7.000e-13 
  1.7470e-09  3.890e-06 -1.981e-09 -7.000e-13 -7.000e-13 
  1.7480e-09  3.890e-06 -1.981e-09 -7.000e-13 -7.000e-13 
  1.7490e-09  3.890e-06 -1.981e-09 -7.000e-13 -7.000e-13 
  1.7500e-09  3.890e-06 -1.981e-09 -7.000e-13 -7.000e-13 
  1.7510e-09  3.890e-06 -1.981e-09 -7.000e-13 -7.000e-13 
  1.7520e-09  3.890e-06 -1.981e-09 -7.000e-13 -7.000e-13 
  1.7530e-09  3.890e-06 -1.981e-09 -7.000e-13 -7.000e-13 
  1.7540e-09  3.890e-06 -1.981e-09 -7.000e-13 -7.000e-13 
  1.7550e-09  3.890e-06 -1.981e-09 -7.000e-13 -7.000e-13 
  1.7560e-09  3.890e-06 -1.981e-09 -7.000e-13 -7.000e-13 
  1.7570e-09  3.890e-06 -1.981e-09 -7.000e-13 -7.000e-13 
  1.7580e-09  3.890e-06 -1.981e-09 -7.000e-13 -7.000e-13 
  1.7590e-09  3.890e-06 -1.981e-09 -7.000e-13 -7.000e-13 
  1.7600e-09  3.890e-06 -1.981e-09 -7.000e-13 -7.000e-13 
  1.7610e-09  3.890e-06 -1.981e-09 -7.000e-13 -7.000e-13 
  1.7620e-09  3.890e-06 -1.981e-09 -7.000e-13 -7.000e-13 
  1.7630e-09  3.890e-06 -1.981e-09 -7.000e-13 -7.000e-13 
  1.7640e-09  3.890e-06 -1.981e-09 -7.000e-13 -7.000e-13 
  1.7650e-09  3.890e-06 -1.981e-09 -7.000e-13 -7.000e-13 
  1.7660e-09  3.890e-06 -1.981e-09 -7.000e-13 -7.000e-13 
  1.7670e-09  3.890e-06 -1.981e-09 -7.000e-13 -7.000e-13 
  1.7680e-09  3.890e-06 -1.981e-09 -7.000e-13 -7.000e-13 
  1.7690e-09  3.890e-06 -1.981e-09 -7.000e-13 -7.000e-13 
  1.7700e-09  3.890e-06 -1.981e-09 -7.000e-13 -7.000e-13 
  1.7710e-09  3.890e-06 -1.981e-09 -7.000e-13 -7.000e-13 
  1.7720e-09  3.890e-06 -1.981e-09 -7.000e-13 -7.000e-13 
  1.7730e-09  3.890e-06 -1.981e-09 -7.000e-13 -7.000e-13 
  1.7740e-09  3.890e-06 -1.981e-09 -7.000e-13 -7.000e-13 
  1.7750e-09  3.890e-06 -1.981e-09 -7.000e-13 -7.000e-13 
  1.7760e-09  3.890e-06 -1.981e-09 -7.000e-13 -7.000e-13 
  1.7770e-09  3.890e-06 -1.981e-09 -7.000e-13 -7.000e-13 
  1.7780e-09  3.890e-06 -1.981e-09 -7.000e-13 -7.000e-13 
  1.7790e-09  3.890e-06 -1.981e-09 -7.000e-13 -7.000e-13 
  1.7800e-09  3.890e-06 -1.981e-09 -7.000e-13 -7.000e-13 
  1.7810e-09  3.890e-06 -1.981e-09 -7.000e-13 -7.000e-13 
  1.7820e-09  3.890e-06 -1.981e-09 -7.000e-13 -7.000e-13 
  1.7830e-09  3.890e-06 -1.981e-09 -7.000e-13 -7.000e-13 
  1.7840e-09  3.890e-06 -1.981e-09 -7.000e-13 -7.000e-13 
  1.7850e-09  3.890e-06 -1.981e-09 -7.000e-13 -7.000e-13 
  1.7860e-09  3.890e-06 -1.981e-09 -7.000e-13 -7.000e-13 
  1.7870e-09  3.890e-06 -1.981e-09 -7.000e-13 -7.000e-13 
  1.7880e-09  3.890e-06 -1.981e-09 -7.000e-13 -7.000e-13 
  1.7890e-09  3.890e-06 -1.981e-09 -7.000e-13 -7.000e-13 
  1.7900e-09  3.890e-06 -1.981e-09 -7.000e-13 -7.000e-13 
  1.7910e-09  3.890e-06 -1.981e-09 -7.000e-13 -7.000e-13 
  1.7920e-09  3.890e-06 -1.981e-09 -7.000e-13 -7.000e-13 
  1.7930e-09  3.890e-06 -1.981e-09 -7.000e-13 -7.000e-13 
  1.7940e-09  3.890e-06 -1.981e-09 -7.000e-13 -7.000e-13 
  1.7950e-09  3.890e-06 -1.981e-09 -7.000e-13 -7.000e-13 
  1.7960e-09  3.890e-06 -1.981e-09 -7.000e-13 -7.000e-13 
  1.7970e-09  3.890e-06 -1.981e-09 -7.000e-13 -7.000e-13 
  1.7980e-09  3.890e-06 -1.981e-09 -7.000e-13 -7.000e-13 
  1.7990e-09  3.890e-06 -1.981e-09 -7.000e-13 -7.000e-13 
  1.8000e-09  3.890e-06 -1.981e-09 -7.000e-13 -7.000e-13 
  1.8010e-09  3.890e-06 -1.981e-09 -7.000e-13 -7.000e-13 
  1.8020e-09  3.890e-06 -1.981e-09 -7.000e-13 -7.000e-13 
  1.8030e-09  3.890e-06 -1.981e-09 -7.000e-13 -7.000e-13 
  1.8040e-09  3.890e-06 -1.981e-09 -7.000e-13 -7.000e-13 
  1.8050e-09  3.890e-06 -1.981e-09 -7.000e-13 -7.000e-13 
  1.8060e-09  3.890e-06 -1.981e-09 -7.000e-13 -7.000e-13 
  1.8070e-09  3.890e-06 -1.981e-09 -7.000e-13 -7.000e-13 
  1.8080e-09  3.890e-06 -1.981e-09 -7.000e-13 -7.000e-13 
  1.8090e-09  3.890e-06 -1.981e-09 -7.000e-13 -7.000e-13 
  1.8100e-09  3.890e-06 -1.981e-09 -7.000e-13 -7.000e-13 
  1.8110e-09  3.890e-06 -1.981e-09 -7.000e-13 -7.000e-13 
  1.8120e-09  3.890e-06 -1.981e-09 -7.000e-13 -7.000e-13 
  1.8130e-09  3.890e-06 -1.981e-09 -7.000e-13 -7.000e-13 
  1.8140e-09  3.890e-06 -1.981e-09 -7.000e-13 -7.000e-13 
  1.8150e-09  3.890e-06 -1.981e-09 -7.000e-13 -7.000e-13 
  1.8160e-09  3.890e-06 -1.981e-09 -7.000e-13 -7.000e-13 
  1.8170e-09  3.890e-06 -1.981e-09 -7.000e-13 -7.000e-13 
  1.8180e-09  3.890e-06 -1.981e-09 -7.000e-13 -7.000e-13 
  1.8190e-09  3.890e-06 -1.981e-09 -7.000e-13 -7.000e-13 
  1.8200e-09  3.890e-06 -1.981e-09 -7.000e-13 -7.000e-13 
  1.8210e-09  3.890e-06 -1.981e-09 -7.000e-13 -7.000e-13 
  1.8220e-09  3.890e-06 -1.981e-09 -7.000e-13 -7.000e-13 
  1.8230e-09  3.890e-06 -1.981e-09 -7.000e-13 -7.000e-13 
  1.8240e-09  3.890e-06 -1.981e-09 -7.000e-13 -7.000e-13 
  1.8250e-09  3.890e-06 -1.981e-09 -7.000e-13 -7.000e-13 
  1.8260e-09  3.890e-06 -1.981e-09 -7.000e-13 -7.000e-13 
  1.8270e-09  3.890e-06 -1.981e-09 -7.000e-13 -7.000e-13 
  1.8280e-09  3.890e-06 -1.981e-09 -7.000e-13 -7.000e-13 
  1.8290e-09  3.890e-06 -1.981e-09 -7.000e-13 -7.000e-13 
  1.8300e-09  3.890e-06 -1.981e-09 -7.000e-13 -7.000e-13 
  1.8310e-09  3.890e-06 -1.981e-09 -7.000e-13 -7.000e-13 
  1.8320e-09  3.890e-06 -1.981e-09 -7.000e-13 -7.000e-13 
  1.8330e-09  3.890e-06 -1.981e-09 -7.000e-13 -7.000e-13 
  1.8340e-09  3.890e-06 -1.981e-09 -7.000e-13 -7.000e-13 
  1.8350e-09  3.890e-06 -1.981e-09 -7.000e-13 -7.000e-13 
  1.8360e-09  3.890e-06 -1.981e-09 -7.000e-13 -7.000e-13 
  1.8370e-09  3.890e-06 -1.981e-09 -7.000e-13 -7.000e-13 
  1.8380e-09  3.890e-06 -1.981e-09 -7.000e-13 -7.000e-13 
  1.8390e-09  3.890e-06 -1.981e-09 -7.000e-13 -7.000e-13 
  1.8400e-09  3.890e-06 -1.981e-09 -7.000e-13 -7.000e-13 
  1.8410e-09  3.890e-06 -1.981e-09 -7.000e-13 -7.000e-13 
  1.8420e-09  3.890e-06 -1.981e-09 -7.000e-13 -7.000e-13 
  1.8430e-09  3.890e-06 -1.981e-09 -7.000e-13 -7.000e-13 
  1.8440e-09  3.890e-06 -1.981e-09 -7.000e-13 -7.000e-13 
  1.8450e-09  3.890e-06 -1.981e-09 -7.000e-13 -7.000e-13 
  1.8460e-09  3.890e-06 -1.981e-09 -7.000e-13 -7.000e-13 
  1.8470e-09  3.890e-06 -1.981e-09 -7.000e-13 -7.000e-13 
  1.8480e-09  3.890e-06 -1.981e-09 -7.000e-13 -7.000e-13 
  1.8490e-09  3.890e-06 -1.981e-09 -7.000e-13 -7.000e-13 
  1.8500e-09  3.890e-06 -1.981e-09 -7.000e-13 -7.000e-13 
  1.8510e-09  3.890e-06 -1.981e-09 -7.000e-13 -7.000e-13 
  1.8520e-09  3.890e-06 -1.981e-09 -7.000e-13 -7.000e-13 
  1.8530e-09  3.890e-06 -1.981e-09 -7.000e-13 -7.000e-13 
  1.8540e-09  3.890e-06 -1.981e-09 -7.000e-13 -7.000e-13 
  1.8550e-09  3.890e-06 -1.981e-09 -7.000e-13 -7.000e-13 
  1.8560e-09  3.890e-06 -1.981e-09 -7.000e-13 -7.000e-13 
  1.8570e-09  3.890e-06 -1.981e-09 -7.000e-13 -7.000e-13 
  1.8580e-09  3.890e-06 -1.981e-09 -7.000e-13 -7.000e-13 
  1.8590e-09  3.890e-06 -1.981e-09 -7.000e-13 -7.000e-13 
  1.8600e-09  3.890e-06 -1.981e-09 -7.000e-13 -7.000e-13 
  1.8610e-09  3.890e-06 -1.981e-09 -7.000e-13 -7.000e-13 
  1.8620e-09  3.890e-06 -1.981e-09 -7.000e-13 -7.000e-13 
  1.8630e-09  3.890e-06 -1.981e-09 -7.000e-13 -7.000e-13 
  1.8640e-09  3.890e-06 -1.981e-09 -7.000e-13 -7.000e-13 
  1.8650e-09  3.890e-06 -1.981e-09 -7.000e-13 -7.000e-13 
  1.8660e-09  3.890e-06 -1.981e-09 -7.000e-13 -7.000e-13 
  1.8670e-09  3.890e-06 -1.981e-09 -7.000e-13 -7.000e-13 
  1.8680e-09  3.890e-06 -1.981e-09 -7.000e-13 -7.000e-13 
  1.8690e-09  3.890e-06 -1.981e-09 -7.000e-13 -7.000e-13 
  1.8700e-09  3.890e-06 -1.981e-09 -7.000e-13 -7.000e-13 
  1.8710e-09  3.890e-06 -1.981e-09 -7.000e-13 -7.000e-13 
  1.8720e-09  3.890e-06 -1.981e-09 -7.000e-13 -7.000e-13 
  1.8730e-09  3.890e-06 -1.981e-09 -7.000e-13 -7.000e-13 
  1.8740e-09  3.890e-06 -1.981e-09 -7.000e-13 -7.000e-13 
  1.8750e-09  3.890e-06 -1.981e-09 -7.000e-13 -7.000e-13 
  1.8760e-09  3.890e-06 -1.981e-09 -7.000e-13 -7.000e-13 
  1.8770e-09  3.890e-06 -1.981e-09 -7.000e-13 -7.000e-13 
  1.8780e-09  3.890e-06 -1.981e-09 -7.000e-13 -7.000e-13 
  1.8790e-09  3.890e-06 -1.981e-09 -7.000e-13 -7.000e-13 
  1.8800e-09  3.890e-06 -1.981e-09 -7.000e-13 -7.000e-13 
  1.8810e-09  3.890e-06 -1.981e-09 -7.000e-13 -7.000e-13 
  1.8820e-09  3.890e-06 -1.981e-09 -7.000e-13 -7.000e-13 
  1.8830e-09  3.890e-06 -1.981e-09 -7.000e-13 -7.000e-13 
  1.8840e-09  3.890e-06 -1.981e-09 -7.000e-13 -7.000e-13 
  1.8850e-09  3.890e-06 -1.981e-09 -7.000e-13 -7.000e-13 
  1.8860e-09  3.890e-06 -1.981e-09 -7.000e-13 -7.000e-13 
  1.8870e-09  3.890e-06 -1.981e-09 -7.000e-13 -7.000e-13 
  1.8880e-09  3.890e-06 -1.981e-09 -7.000e-13 -7.000e-13 
  1.8890e-09  3.890e-06 -1.981e-09 -7.000e-13 -7.000e-13 
  1.8900e-09  3.890e-06 -1.981e-09 -7.000e-13 -7.000e-13 
  1.8910e-09  3.890e-06 -1.981e-09 -7.000e-13 -7.000e-13 
  1.8920e-09  3.890e-06 -1.981e-09 -7.000e-13 -7.000e-13 
  1.8930e-09  3.890e-06 -1.981e-09 -7.000e-13 -7.000e-13 
  1.8940e-09  3.890e-06 -1.981e-09 -7.000e-13 -7.000e-13 
  1.8950e-09  3.890e-06 -1.981e-09 -7.000e-13 -7.000e-13 
  1.8960e-09  3.890e-06 -1.981e-09 -7.000e-13 -7.000e-13 
  1.8970e-09  3.890e-06 -1.981e-09 -7.000e-13 -7.000e-13 
  1.8980e-09  3.890e-06 -1.981e-09 -7.000e-13 -7.000e-13 
  1.8990e-09  3.890e-06 -1.981e-09 -7.000e-13 -7.000e-13 
  1.9000e-09  3.890e-06 -1.981e-09 -7.000e-13 -7.000e-13 
  1.9010e-09  3.890e-06 -1.981e-09 -7.000e-13 -7.000e-13 
  1.9020e-09  3.890e-06 -1.981e-09 -7.000e-13 -7.000e-13 
  1.9030e-09  3.890e-06 -1.981e-09 -7.000e-13 -7.000e-13 
  1.9040e-09  3.890e-06 -1.981e-09 -7.000e-13 -7.000e-13 
  1.9050e-09  3.890e-06 -1.981e-09 -7.000e-13 -7.000e-13 
  1.9060e-09  3.890e-06 -1.981e-09 -7.000e-13 -7.000e-13 
  1.9070e-09  3.890e-06 -1.981e-09 -7.000e-13 -7.000e-13 
  1.9080e-09  3.890e-06 -1.981e-09 -7.000e-13 -7.000e-13 
  1.9090e-09  3.890e-06 -1.981e-09 -7.000e-13 -7.000e-13 
  1.9100e-09  3.890e-06 -1.981e-09 -7.000e-13 -7.000e-13 
  1.9110e-09  3.890e-06 -1.981e-09 -7.000e-13 -7.000e-13 
  1.9120e-09  3.890e-06 -1.981e-09 -7.000e-13 -7.000e-13 
  1.9130e-09  3.890e-06 -1.981e-09 -7.000e-13 -7.000e-13 
  1.9140e-09  3.890e-06 -1.981e-09 -7.000e-13 -7.000e-13 
  1.9150e-09  3.890e-06 -1.981e-09 -7.000e-13 -7.000e-13 
  1.9160e-09  3.890e-06 -1.981e-09 -7.000e-13 -7.000e-13 
  1.9170e-09  3.890e-06 -1.981e-09 -7.000e-13 -7.000e-13 
  1.9180e-09  3.890e-06 -1.981e-09 -7.000e-13 -7.000e-13 
  1.9190e-09  3.890e-06 -1.981e-09 -7.000e-13 -7.000e-13 
  1.9200e-09  3.890e-06 -1.981e-09 -7.000e-13 -7.000e-13 
  1.9210e-09  3.890e-06 -1.981e-09 -7.000e-13 -7.000e-13 
  1.9220e-09  3.890e-06 -1.981e-09 -7.000e-13 -7.000e-13 
  1.9230e-09  3.890e-06 -1.981e-09 -7.000e-13 -7.000e-13 
  1.9240e-09  3.890e-06 -1.981e-09 -7.000e-13 -7.000e-13 
  1.9250e-09  3.890e-06 -1.981e-09 -7.000e-13 -7.000e-13 
  1.9260e-09  3.890e-06 -1.981e-09 -7.000e-13 -7.000e-13 
  1.9270e-09  3.890e-06 -1.981e-09 -7.000e-13 -7.000e-13 
  1.9280e-09  3.890e-06 -1.981e-09 -7.000e-13 -7.000e-13 
  1.9290e-09  3.890e-06 -1.981e-09 -7.000e-13 -7.000e-13 
  1.9300e-09  3.890e-06 -1.981e-09 -7.000e-13 -7.000e-13 
  1.9310e-09  3.890e-06 -1.981e-09 -7.000e-13 -7.000e-13 
  1.9320e-09  3.890e-06 -1.981e-09 -7.000e-13 -7.000e-13 
  1.9330e-09  3.890e-06 -1.981e-09 -7.000e-13 -7.000e-13 
  1.9340e-09  3.890e-06 -1.981e-09 -7.000e-13 -7.000e-13 
  1.9350e-09  3.890e-06 -1.981e-09 -7.000e-13 -7.000e-13 
  1.9360e-09  3.890e-06 -1.981e-09 -7.000e-13 -7.000e-13 
  1.9370e-09  3.890e-06 -1.981e-09 -7.000e-13 -7.000e-13 
  1.9380e-09  3.890e-06 -1.981e-09 -7.000e-13 -7.000e-13 
  1.9390e-09  3.890e-06 -1.981e-09 -7.000e-13 -7.000e-13 
  1.9400e-09  3.890e-06 -1.981e-09 -7.000e-13 -7.000e-13 
  1.9410e-09  3.890e-06 -1.981e-09 -7.000e-13 -7.000e-13 
  1.9420e-09  3.890e-06 -1.981e-09 -7.000e-13 -7.000e-13 
  1.9430e-09  3.890e-06 -1.981e-09 -7.000e-13 -7.000e-13 
  1.9440e-09  3.890e-06 -1.981e-09 -7.000e-13 -7.000e-13 
  1.9450e-09  3.890e-06 -1.981e-09 -7.000e-13 -7.000e-13 
  1.9460e-09  3.890e-06 -1.981e-09 -7.000e-13 -7.000e-13 
  1.9470e-09  3.890e-06 -1.981e-09 -7.000e-13 -7.000e-13 
  1.9480e-09  3.890e-06 -1.981e-09 -7.000e-13 -7.000e-13 
  1.9490e-09  3.890e-06 -1.981e-09 -7.000e-13 -7.000e-13 
  1.9500e-09  3.890e-06 -1.981e-09 -7.000e-13 -7.000e-13 
  1.9510e-09  3.890e-06 -1.981e-09 -7.000e-13 -7.000e-13 
  1.9520e-09  3.890e-06 -1.981e-09 -7.000e-13 -7.000e-13 
  1.9530e-09  3.890e-06 -1.981e-09 -7.000e-13 -7.000e-13 
  1.9540e-09  3.890e-06 -1.981e-09 -7.000e-13 -7.000e-13 
  1.9550e-09  3.890e-06 -1.981e-09 -7.000e-13 -7.000e-13 
  1.9560e-09  3.890e-06 -1.981e-09 -7.000e-13 -7.000e-13 
  1.9570e-09  3.890e-06 -1.981e-09 -7.000e-13 -7.000e-13 
  1.9580e-09  3.890e-06 -1.981e-09 -7.000e-13 -7.000e-13 
  1.9590e-09  3.890e-06 -1.981e-09 -7.000e-13 -7.000e-13 
  1.9600e-09  3.890e-06 -1.981e-09 -7.000e-13 -7.000e-13 
  1.9610e-09  3.890e-06 -1.981e-09 -7.000e-13 -7.000e-13 
  1.9620e-09  3.890e-06 -1.981e-09 -7.000e-13 -7.000e-13 
  1.9630e-09  3.890e-06 -1.981e-09 -7.000e-13 -7.000e-13 
  1.9640e-09  3.890e-06 -1.981e-09 -7.000e-13 -7.000e-13 
  1.9650e-09  3.890e-06 -1.981e-09 -7.000e-13 -7.000e-13 
  1.9660e-09  3.890e-06 -1.981e-09 -7.000e-13 -7.000e-13 
  1.9670e-09  3.890e-06 -1.981e-09 -7.000e-13 -7.000e-13 
  1.9680e-09  3.891e-06 -1.981e-09 -7.000e-13 -7.000e-13 
  1.9690e-09  3.891e-06 -1.981e-09 -7.000e-13 -7.000e-13 
  1.9700e-09  3.891e-06 -1.981e-09 -7.000e-13 -7.000e-13 
  1.9710e-09  3.891e-06 -1.981e-09 -7.000e-13 -7.000e-13 
  1.9720e-09  3.891e-06 -1.981e-09 -7.000e-13 -7.000e-13 
  1.9730e-09  3.891e-06 -1.981e-09 -7.000e-13 -7.000e-13 
  1.9740e-09  3.891e-06 -1.981e-09 -7.000e-13 -7.000e-13 
  1.9750e-09  3.891e-06 -1.981e-09 -7.000e-13 -7.000e-13 
  1.9760e-09  3.891e-06 -1.981e-09 -7.000e-13 -7.000e-13 
  1.9770e-09  3.891e-06 -1.981e-09 -7.000e-13 -7.000e-13 
  1.9780e-09  3.891e-06 -1.981e-09 -7.000e-13 -7.000e-13 
  1.9790e-09  3.891e-06 -1.981e-09 -7.000e-13 -7.000e-13 
  1.9800e-09  3.891e-06 -1.981e-09 -7.000e-13 -7.000e-13 
  1.9810e-09  3.891e-06 -1.981e-09 -7.000e-13 -7.000e-13 
  1.9820e-09  3.891e-06 -1.981e-09 -7.000e-13 -7.000e-13 
  1.9830e-09  3.891e-06 -1.981e-09 -7.000e-13 -7.000e-13 
  1.9840e-09  3.891e-06 -1.981e-09 -7.000e-13 -7.000e-13 
  1.9850e-09  3.891e-06 -1.981e-09 -7.000e-13 -7.000e-13 
  1.9860e-09  3.891e-06 -1.981e-09 -7.000e-13 -7.000e-13 
  1.9870e-09  3.891e-06 -1.981e-09 -7.000e-13 -7.000e-13 
  1.9880e-09  3.891e-06 -1.981e-09 -7.000e-13 -7.000e-13 
  1.9890e-09  3.891e-06 -1.981e-09 -7.000e-13 -7.000e-13 
  1.9900e-09  3.891e-06 -1.981e-09 -7.000e-13 -7.000e-13 
  1.9910e-09  3.891e-06 -1.981e-09 -7.000e-13 -7.000e-13 
  1.9920e-09  3.891e-06 -1.981e-09 -7.000e-13 -7.000e-13 
  1.9930e-09  3.891e-06 -1.981e-09 -7.000e-13 -7.000e-13 
  1.9940e-09  3.891e-06 -1.981e-09 -7.000e-13 -7.000e-13 
  1.9950e-09  3.891e-06 -1.981e-09 -7.000e-13 -7.000e-13 
  1.9960e-09  3.892e-06 -1.981e-09 -7.000e-13 -7.000e-13 
  1.9970e-09  3.892e-06 -1.981e-09 -7.000e-13 -7.000e-13 
  1.9980e-09  3.892e-06 -1.981e-09 -7.000e-13 -7.000e-13 
  1.9990e-09  3.892e-06 -1.981e-09 -7.000e-13 -7.000e-13 
  2.0000e-09  3.892e-06 -1.981e-09 -7.000e-13 -7.000e-13 
y
 read_q1_q_min= 6.999970e-01    at= 4.487137e-10
             from= 2.200000e-10    to= 1.200000e-09
 read_q1_blb_min= 6.962583e-01    at= 1.200000e-09
             from= 2.200000e-10    to= 1.200000e-09
 read_q0_qb_min= 3.817794e-06    at= 2.487137e-10
             from= 2.200000e-10    to= 1.200000e-09
 read_q0_bl_min= 6.965089e-01    at= 1.200000e-09
             from= 2.200000e-10    to= 1.200000e-09
 write0_q_final= 6.999970e-01
 write0_qb_final= 3.889895e-06
 write1_q_final= 6.999970e-01
 write1_qb_final= 3.889895e-06
 hold_q1_q_min= 6.999941e-01    at= 1.171308e-10
             from= 1.000000e-10    to= 2.000000e-09
 hold_q1_qb_max= 6.600389e-06    at= 1.171308e-10
             from= 1.000000e-10    to= 2.000000e-09
 hold_q1_ivdd_avg=-1.981235e-09  from= 5.000000e-10     to= 2.000000e-09
 hold_q0_q_max= 6.999971e-01    at= 1.574821e-10
             from= 1.000000e-10    to= 2.000000e-09
 hold_q0_qb_min= 3.789450e-06    at= 1.574821e-10
             from= 1.000000e-10    to= 2.000000e-09
 hold_q0_ivdd_avg=-1.981235e-09  from= 5.000000e-10     to= 2.000000e-09

          ***** job concluded
 ******  
 hold_q0

 ****** job statistics summary tnom=  25.000 temp=  25.000 ******

  ******  Circuit Statistics  ******
  # nodes       =      35 # elements   =      82
  # resistors   =      44 # capacitors =      25 # inductors   =       0
  # mutual_inds =       0 # vccs       =       0 # vcvs        =       0
  # cccs        =       0 # ccvs       =       0 # volt_srcs   =       7
  # curr_srcs   =       0 # diodes     =       0 # bjts        =       0
  # jfets       =       0 # mosfets    =       0 # U elements  =       0
  # T elements  =       0 # W elements =       0 # B elements  =       0
  # S elements  =       0 # P elements =       0 # va device   =       6
  # vector_srcs =       0 # N elements =       0


  ******  Runtime Statistics (seconds)  ******

  analysis           time    # points   tot. iter  conv.iter
  op point           0.00           1           0
  transient          0.01        2001         175          78 rev=        11
  readin             0.02
  errchk             0.01
  setup              0.00
  output             0.00


           peak memory used         83.75 megabytes
           total cpu time            0.04 seconds
           total elapsed time        0.05 seconds
           job started at     10:18:44 07/09/2026
           job ended   at     10:18:46 07/09/2026
           job total runtime         2.85 seconds


  lic: Release hspice token(s) 
 lic: total license checkout elapse time:        0.04(s)
