$DATA1 SOURCE='HSPICE' VERSION='P-2019.06-SP1-1 win64' PARAM_COUNT=0
.TITLE 'read_q0'
 read_q1_q_min    read_q1_blb_min  read_q0_qb_min   read_q0_bl_min  
 temper           alter#          
  6.98871e-01     -1.46702e-05     -7.10626e-06      6.99871e-01    
  2.50000e+01     3               
