$DATA1 SOURCE='HSPICE' VERSION='P-2019.06-SP1-1 win64' PARAM_COUNT=0
.TITLE 'write_0'
 read_q1_q_min    read_q1_blb_min  read_q0_qb_min   read_q0_bl_min  
 write0_q_final   write0_qb_final  temper           alter#          
 -1.12941e-05      6.99217e-01      1.27002e-01     -6.01279e-08    
  3.89549e-06      6.99997e-01      2.50000e+01     4               
