$DATA1 SOURCE='HSPICE' VERSION='P-2019.06-SP1-1 win64' PARAM_COUNT=0
.TITLE 'read_q1'
 read_q1_q_min    read_q1_blb_min  temper           alter#          
  6.98871e-01     -1.46552e-05      2.50000e+01     2               
