 ****** HSPICE -- P-2019.06-SP1-1 win64 (Sep 27 2019) ******                    
  Copyright (c) 1986 - 2026 by Synopsys, Inc. All Rights Reserved.              
  This software and the associated documentation are proprietary
  to Synopsys, Inc. This software may only be used in accordance
  with the terms and conditions of a written license agreement with
  Synopsys, Inc. All other use, reproduction, or distribution of
  this software is strictly prohibited.
  Input File: fit_l107.sp                                                       
  Command line options: C:\synopsys\Hspice_P-2019.06-SP1-1\WIN64\hspice.com -i fit_l107.sp -o C:\Users\Tengfei\Desktop\Project_DTCO\AutoLDM\Hspice\iv\fit_nmos_idvg_vmax1\results\fit_l107\fit_l107
  Start time: Thu Jul  9 11:01:40 2026
  lic:  
  lic: FLEXlm: SDK_12.3 
  lic: USER:   Tengfei              HOSTNAME: LAPTOP-K9QP6UAM 
  lic: HOSTID: "00155daa97f3"       PID:      20936 
  lic: Using FLEXlm license file: 
  lic: 27000@LAPTOP-K9QP6UAM 
  lic: Checkout 1 hspice 
  lic: License/Maintenance for hspice will expire on 30-dec-2030/2030.12 
  lic: 1(in_use)/99(total) FLOATING license(s) on SERVER 27000@LAPTOP-K9QP6UAM 
  lic:   
 **info** *pvaI* Module (cfet_nmos_lvt): 4 unexpanded port, 0 init, 980 behav, 4 contrib, 136/1414 expr(s)

 **info** *pvaI*        Has DIS(ST), 2/146 afCount, 0 MT, sys, IO(0/0/1/0)

 **info** *pvaI*        0 gmdIsThreadSafe (ST)

 **info** *pvaI*        0 const-G and 0 const-C, Has switchBranch, 22 bypassOpt, 0 bus2scalar, 0 vwb

 **info** *pvaI*        set_va_exp = 600 set by default

 **warning** *pvaW*        variable 'tgaamax' declared but not used in RHS, deleted (../../../va/cfet_nmos_lvt.va:45)

 **warning** *pvaW*                   To relax this rule, use 'setenv PVA_KEEP_VARS 1' to keep variables for probing.

 **warning** *pvaW*        variable 'tgaamin' declared but not used in RHS, deleted (../../../va/cfet_nmos_lvt.va:46)

 **warning** *pvaW*        variable 'HFIN' declared but not used in RHS, deleted (../../../va/cfet_nmos_lvt.va:451)

 **warning** *pvaW*        variable 'Inv_L' initialized but not used in RHS, deleted (../../../va/cfet_nmos_lvt.va:2268)

 **warning** *pvaW*        variable 'Inv_NFIN' initialized but not used in RHS, deleted (../../../va/cfet_nmos_lvt.va:2269)

 **warning** *pvaW*        variable 'Inv_LNFIN' initialized but not used in RHS, deleted (../../../va/cfet_nmos_lvt.va:2270)

 **warning** *pvaW*        variable 'Inv_W' initialized but not used in RHS, deleted (../../../va/cfet_nmos_lvt.va:2271)

 **warning** *pvaW*        variable 'Inv_WL' initialized but not used in RHS, deleted (../../../va/cfet_nmos_lvt.va:2272)

 **warning** *pvaW*        variable 'WDIM0' declared but not used in RHS, deleted (../../../va/cfet_nmos_lvt.va:485)

 **warning** *pvaW*        variable 'WDIMR' declared but not used in RHS, deleted (../../../va/cfet_nmos_lvt.va:486)

 **warning** *pvaW*        variable 'WSSP0' declared but not used in RHS, deleted (../../../va/cfet_nmos_lvt.va:487)

 **warning** *pvaW*        variable 'WSSPR' declared but not used in RHS, deleted (../../../va/cfet_nmos_lvt.va:488)

 **warning** *pvaW*        variable 'DIM1H' declared but not used in RHS, deleted (../../../va/cfet_nmos_lvt.va:490)

 **warning** *pvaW*        variable 'DIMENSION1_i' declared but not used in RHS, deleted (../../../va/cfet_nmos_lvt.va:491)

 **warning** *pvaW*        variable 'DIM2H' declared but not used in RHS, deleted (../../../va/cfet_nmos_lvt.va:492)

 **warning** *pvaW*        variable 'DIMENSION2_i' declared but not used in RHS, deleted (../../../va/cfet_nmos_lvt.va:493)

 **warning** *pvaW*        variable 'DIM3H' declared but not used in RHS, deleted (../../../va/cfet_nmos_lvt.va:494)

 **warning** *pvaW*        variable 'DIMENSION3_i' declared but not used in RHS, deleted (../../../va/cfet_nmos_lvt.va:495)

 **warning** *pvaW*        variable 'DSSP1' declared but not used in RHS, deleted (../../../va/cfet_nmos_lvt.va:496)

 **warning** *pvaW*        variable 'DSSP2' declared but not used in RHS, deleted (../../../va/cfet_nmos_lvt.va:497)

 **warning** *pvaW*        variable 'DSSP3' declared but not used in RHS, deleted (../../../va/cfet_nmos_lvt.va:498)

 **warning** *pvaW*        variable 'SSP1_i' declared but not used in RHS, deleted (../../../va/cfet_nmos_lvt.va:499)

 **warning** *pvaW*        variable 'SSP2_i' declared but not used in RHS, deleted (../../../va/cfet_nmos_lvt.va:500)

 **warning** *pvaW*        variable 'SSP3_i' declared but not used in RHS, deleted (../../../va/cfet_nmos_lvt.va:501)

 **warning** *pvaW*        variable 'TSRE2' declared but not used in RHS, deleted (../../../va/cfet_nmos_lvt.va:503)

 **warning** *pvaW*        variable 'TDWSE2' declared but not used in RHS, deleted (../../../va/cfet_nmos_lvt.va:504)

 **warning** *pvaW*        variable 'TSRE3' declared but not used in RHS, deleted (../../../va/cfet_nmos_lvt.va:505)

 **warning** *pvaW*        variable 'TDWSE3' declared but not used in RHS, deleted (../../../va/cfet_nmos_lvt.va:506)

 **warning** *pvaW*        variable 'TSRQ1' declared but not used in RHS, deleted (../../../va/cfet_nmos_lvt.va:508)

 **warning** *pvaW*        variable 'TDWSQ1' declared but not used in RHS, deleted (../../../va/cfet_nmos_lvt.va:509)

 **warning** *pvaW*        variable 'TSRQ2' declared but not used in RHS, deleted (../../../va/cfet_nmos_lvt.va:510)

 **warning** *pvaW*        variable 'TDWSQ2' declared but not used in RHS, deleted (../../../va/cfet_nmos_lvt.va:511)

 **warning** *pvaW*        variable 'TSRQ3' declared but not used in RHS, deleted (../../../va/cfet_nmos_lvt.va:512)

 **warning** *pvaW*        variable 'TDWSQ3' declared but not used in RHS, deleted (../../../va/cfet_nmos_lvt.va:513)

 **warning** *pvaW*        variable 'WGAANOM' declared but not used in RHS, deleted (../../../va/cfet_nmos_lvt.va:515)

 **warning** *pvaW*        variable 'WSFE2' declared but not used in RHS, deleted (../../../va/cfet_nmos_lvt.va:516)

 **warning** *pvaW*        variable 'WSFE3' declared but not used in RHS, deleted (../../../va/cfet_nmos_lvt.va:517)

 **warning** *pvaW*        variable 'E2NOM_i' declared but not used in RHS, deleted (../../../va/cfet_nmos_lvt.va:519)

 **warning** *pvaW*        variable 'E3NOM_i' declared but not used in RHS, deleted (../../../va/cfet_nmos_lvt.va:520)

 **warning** *pvaW*        variable 'MFE2' declared but not used in RHS, deleted (../../../va/cfet_nmos_lvt.va:522)

 **warning** *pvaW*        variable 'MFE3' declared but not used in RHS, deleted (../../../va/cfet_nmos_lvt.va:523)

 **warning** *pvaW*        variable 'MFQ1' declared but not used in RHS, deleted (../../../va/cfet_nmos_lvt.va:525)

 **warning** *pvaW*        variable 'MFQ2' declared but not used in RHS, deleted (../../../va/cfet_nmos_lvt.va:526)

 **warning** *pvaW*        variable 'MFQ3' declared but not used in RHS, deleted (../../../va/cfet_nmos_lvt.va:527)

 **warning** *pvaW*        variable 'WSFQ1' declared but not used in RHS, deleted (../../../va/cfet_nmos_lvt.va:529)

 **warning** *pvaW*        variable 'WSFQ2' declared but not used in RHS, deleted (../../../va/cfet_nmos_lvt.va:530)

 **warning** *pvaW*        variable 'WSFQ3' declared but not used in RHS, deleted (../../../va/cfet_nmos_lvt.va:531)

 **warning** *pvaW*        variable 'MFQ1NOM_i' declared but not used in RHS, deleted (../../../va/cfet_nmos_lvt.va:533)

 **warning** *pvaW*        variable 'MFQ2NOM_i' declared but not used in RHS, deleted (../../../va/cfet_nmos_lvt.va:534)

 **warning** *pvaW*        variable 'MFQ3NOM_i' declared but not used in RHS, deleted (../../../va/cfet_nmos_lvt.va:535)

 **warning** *pvaW*        variable 'QMFACTOR_i' declared but not used in RHS, deleted (../../../va/cfet_nmos_lvt.va:537)

 **warning** *pvaW*        variable 'QMTCENCV_i' declared but not used in RHS, deleted (../../../va/cfet_nmos_lvt.va:539)

 **warning** *pvaW*        variable 'ETAMOBTHIN' declared but not used in RHS, deleted (../../../va/cfet_nmos_lvt.va:547)

 **warning** *pvaW*        variable 'ETAMOB' declared but not used in RHS, deleted (../../../va/cfet_nmos_lvt.va:548)

 **warning** *pvaW*        variable 'ETAMOBTNI' declared but not used in RHS, deleted (../../../va/cfet_nmos_lvt.va:549)

 **warning** *pvaW*        variable 'ETAMOBIR' declared but not used in RHS, deleted (../../../va/cfet_nmos_lvt.va:550)

 **warning** *pvaW*        variable 'UA' declared but not used in RHS, deleted (../../../va/cfet_nmos_lvt.va:551)

 **warning** *pvaW*        variable 'UATHIN' declared but not used in RHS, deleted (../../../va/cfet_nmos_lvt.va:552)

 **warning** *pvaW*        variable 'UATSAT' declared but not used in RHS, deleted (../../../va/cfet_nmos_lvt.va:553)

 **warning** *pvaW*        variable 'UARTSC' declared but not used in RHS, deleted (../../../va/cfet_nmos_lvt.va:554)

 **warning** *pvaW*        variable 'UATNI' declared but not used in RHS, deleted (../../../va/cfet_nmos_lvt.va:555)

 **warning** *pvaW*        variable 'UAIR' declared but not used in RHS, deleted (../../../va/cfet_nmos_lvt.va:556)

 **warning** *pvaW*        variable 'EUTHIN' declared but not used in RHS, deleted (../../../va/cfet_nmos_lvt.va:557)

 **warning** *pvaW*        variable 'EU' declared but not used in RHS, deleted (../../../va/cfet_nmos_lvt.va:558)

 **warning** *pvaW*        variable 'EUPTSC' declared but not used in RHS, deleted (../../../va/cfet_nmos_lvt.va:559)

 **warning** *pvaW*        variable 'EUTNI' declared but not used in RHS, deleted (../../../va/cfet_nmos_lvt.va:560)

 **warning** *pvaW*        variable 'EUIR' declared but not used in RHS, deleted (../../../va/cfet_nmos_lvt.va:561)

 **warning** *pvaW*        variable 'U0ETAWSC' declared but not used in RHS, deleted (../../../va/cfet_nmos_lvt.va:562)

 **warning** *pvaW*        variable 'EGBULK' declared but not used in RHS, deleted (../../../va/cfet_nmos_lvt.va:563)

 **warning** *pvaW*        variable 'U0EMSM1' declared but not used in RHS, deleted (../../../va/cfet_nmos_lvt.va:564)

 **warning** *pvaW*        variable 'U0EMSM2' declared but not used in RHS, deleted (../../../va/cfet_nmos_lvt.va:565)

 **warning** *pvaW*        variable 'UDTHIN' declared but not used in RHS, deleted (../../../va/cfet_nmos_lvt.va:568)

 **warning** *pvaW*        variable 'UD' declared but not used in RHS, deleted (../../../va/cfet_nmos_lvt.va:569)

 **warning** *pvaW*        variable 'UDTSAT' declared but not used in RHS, deleted (../../../va/cfet_nmos_lvt.va:570)

 **warning** *pvaW*        variable 'UDPTSC' declared but not used in RHS, deleted (../../../va/cfet_nmos_lvt.va:571)

 **warning** *pvaW*        variable 'PSAT_i' declared but not used in RHS, deleted (../../../va/cfet_nmos_lvt.va:578)

 **warning** *pvaW*        variable 'PSATCV_i' declared but not used in RHS, deleted (../../../va/cfet_nmos_lvt.va:579)

 **warning** *pvaW*        variable 'DELTAVSAT_i' declared but not used in RHS, deleted (../../../va/cfet_nmos_lvt.va:580)

 **warning** *pvaW*        variable 'DELTAVSATCV_i' declared but not used in RHS, deleted (../../../va/cfet_nmos_lvt.va:581)

 **warning** *pvaW*        variable 'PTWG_a' declared but not used in RHS, deleted (../../../va/cfet_nmos_lvt.va:582)

 **warning** *pvaW*        variable 'PCLMG' declared but not used in RHS, deleted (../../../va/cfet_nmos_lvt.va:609)

 **warning** *pvaW*        variable 'PCLM' declared but not used in RHS, deleted (../../../va/cfet_nmos_lvt.va:614)

 **warning** *pvaW*        variable 'LPCLM' declared but not used in RHS, deleted (../../../va/cfet_nmos_lvt.va:615)

 **warning** *pvaW*        variable 'NPCLM' declared but not used in RHS, deleted (../../../va/cfet_nmos_lvt.va:616)

 **warning** *pvaW*        variable 'PPCLM' declared but not used in RHS, deleted (../../../va/cfet_nmos_lvt.va:617)

 **warning** *pvaW*        variable 'WPCLM' declared but not used in RHS, deleted (../../../va/cfet_nmos_lvt.va:618)

 **warning** *pvaW*        variable 'P2PCLM' declared but not used in RHS, deleted (../../../va/cfet_nmos_lvt.va:619)

 **warning** *pvaW*        variable 'PCLMCV_i' declared but not used in RHS, deleted (../../../va/cfet_nmos_lvt.va:621)

 **warning** *pvaW*        variable 'DVT1' declared but not used in RHS, deleted (../../../va/cfet_nmos_lvt.va:623)

 **warning** *pvaW*        variable 'LDVT1' declared but not used in RHS, deleted (../../../va/cfet_nmos_lvt.va:624)

 **warning** *pvaW*        variable 'NDVT1' declared but not used in RHS, deleted (../../../va/cfet_nmos_lvt.va:625)

 **warning** *pvaW*        variable 'PDVT1' declared but not used in RHS, deleted (../../../va/cfet_nmos_lvt.va:626)

 **warning** *pvaW*        variable 'WDVT1' declared but not used in RHS, deleted (../../../va/cfet_nmos_lvt.va:627)

 **warning** *pvaW*        variable 'P2DVT1' declared but not used in RHS, deleted (../../../va/cfet_nmos_lvt.va:628)

 **warning** *pvaW*        variable 'DVT1SS' declared but not used in RHS, deleted (../../../va/cfet_nmos_lvt.va:630)

 **warning** *pvaW*        variable 'LDVT1SS' declared but not used in RHS, deleted (../../../va/cfet_nmos_lvt.va:631)

 **warning** *pvaW*        variable 'NDVT1SS' declared but not used in RHS, deleted (../../../va/cfet_nmos_lvt.va:632)

 **warning** *pvaW*        variable 'PDVT1SS' declared but not used in RHS, deleted (../../../va/cfet_nmos_lvt.va:633)

 **warning** *pvaW*        variable 'WDVT1SS' declared but not used in RHS, deleted (../../../va/cfet_nmos_lvt.va:634)

 **warning** *pvaW*        variable 'P2DVT1SS' declared but not used in RHS, deleted (../../../va/cfet_nmos_lvt.va:635)

 **warning** *pvaW*        variable 'DSUB' declared but not used in RHS, deleted (../../../va/cfet_nmos_lvt.va:637)

 **warning** *pvaW*        variable 'LDSUB' declared but not used in RHS, deleted (../../../va/cfet_nmos_lvt.va:638)

 **warning** *pvaW*        variable 'NDSUB' declared but not used in RHS, deleted (../../../va/cfet_nmos_lvt.va:639)

 **warning** *pvaW*        variable 'PDSUB' declared but not used in RHS, deleted (../../../va/cfet_nmos_lvt.va:640)

 **warning** *pvaW*        variable 'WDSUB' declared but not used in RHS, deleted (../../../va/cfet_nmos_lvt.va:641)

 **warning** *pvaW*        variable 'P2DSUB' declared but not used in RHS, deleted (../../../va/cfet_nmos_lvt.va:642)

 **warning** *pvaW*        variable 'LPE0' declared but not used in RHS, deleted (../../../va/cfet_nmos_lvt.va:644)

 **warning** *pvaW*        variable 'LLPE0' declared but not used in RHS, deleted (../../../va/cfet_nmos_lvt.va:645)

 **warning** *pvaW*        variable 'NLPE0' declared but not used in RHS, deleted (../../../va/cfet_nmos_lvt.va:646)

 **warning** *pvaW*        variable 'PLPE0' declared but not used in RHS, deleted (../../../va/cfet_nmos_lvt.va:647)

 **warning** *pvaW*        variable 'WLPE0' declared but not used in RHS, deleted (../../../va/cfet_nmos_lvt.va:648)

 **warning** *pvaW*        variable 'P2LPE0' declared but not used in RHS, deleted (../../../va/cfet_nmos_lvt.va:649)

 **warning** *pvaW*        variable 'CDSC' declared but not used in RHS, deleted (../../../va/cfet_nmos_lvt.va:651)

 **warning** *pvaW*        variable 'LCDSC' declared but not used in RHS, deleted (../../../va/cfet_nmos_lvt.va:652)

 **warning** *pvaW*        variable 'NCDSC' declared but not used in RHS, deleted (../../../va/cfet_nmos_lvt.va:653)

 **warning** *pvaW*        variable 'PCDSC' declared but not used in RHS, deleted (../../../va/cfet_nmos_lvt.va:654)

 **warning** *pvaW*        variable 'WCDSC' declared but not used in RHS, deleted (../../../va/cfet_nmos_lvt.va:655)

 **warning** *pvaW*        variable 'P2CDSC' declared but not used in RHS, deleted (../../../va/cfet_nmos_lvt.va:656)

 **warning** *pvaW*        variable 'CDSCD' declared but not used in RHS, deleted (../../../va/cfet_nmos_lvt.va:658)

 **warning** *pvaW*        variable 'LCDSCD' declared but not used in RHS, deleted (../../../va/cfet_nmos_lvt.va:659)

 **warning** *pvaW*        variable 'NCDSCD' declared but not used in RHS, deleted (../../../va/cfet_nmos_lvt.va:660)

 **warning** *pvaW*        variable 'PCDSCD' declared but not used in RHS, deleted (../../../va/cfet_nmos_lvt.va:661)

 **warning** *pvaW*        variable 'WCDSCD' declared but not used in RHS, deleted (../../../va/cfet_nmos_lvt.va:662)

 **warning** *pvaW*        variable 'P2CDSCD' declared but not used in RHS, deleted (../../../va/cfet_nmos_lvt.va:663)

 **warning** *pvaW*        variable 'CIT' declared but not used in RHS, deleted (../../../va/cfet_nmos_lvt.va:665)

 **warning** *pvaW*        variable 'LCIT' declared but not used in RHS, deleted (../../../va/cfet_nmos_lvt.va:666)

 **warning** *pvaW*        variable 'NCIT' declared but not used in RHS, deleted (../../../va/cfet_nmos_lvt.va:667)

 **warning** *pvaW*        variable 'PCIT' declared but not used in RHS, deleted (../../../va/cfet_nmos_lvt.va:668)

 **warning** *pvaW*        variable 'WCIT' declared but not used in RHS, deleted (../../../va/cfet_nmos_lvt.va:669)

 **warning** *pvaW*        variable 'P2CIT' declared but not used in RHS, deleted (../../../va/cfet_nmos_lvt.va:670)

 **warning** *pvaW*        variable 'DVT0' declared but not used in RHS, deleted (../../../va/cfet_nmos_lvt.va:672)

 **warning** *pvaW*        variable 'LDVT0' declared but not used in RHS, deleted (../../../va/cfet_nmos_lvt.va:673)

 **warning** *pvaW*        variable 'NDVT0' declared but not used in RHS, deleted (../../../va/cfet_nmos_lvt.va:674)

 **warning** *pvaW*        variable 'PDVT0' declared but not used in RHS, deleted (../../../va/cfet_nmos_lvt.va:675)

 **warning** *pvaW*        variable 'WDVT0' declared but not used in RHS, deleted (../../../va/cfet_nmos_lvt.va:676)

 **warning** *pvaW*        variable 'P2DVT0' declared but not used in RHS, deleted (../../../va/cfet_nmos_lvt.va:677)

 **warning** *pvaW*        variable 'ETA0' declared but not used in RHS, deleted (../../../va/cfet_nmos_lvt.va:679)

 **warning** *pvaW*        variable 'LETA0' declared but not used in RHS, deleted (../../../va/cfet_nmos_lvt.va:680)

 **warning** *pvaW*        variable 'NETA0' declared but not used in RHS, deleted (../../../va/cfet_nmos_lvt.va:681)

 **warning** *pvaW*        variable 'PETA0' declared but not used in RHS, deleted (../../../va/cfet_nmos_lvt.va:682)

 **warning** *pvaW*        variable 'WETA0' declared but not used in RHS, deleted (../../../va/cfet_nmos_lvt.va:683)

 **warning** *pvaW*        variable 'P2ETA0' declared but not used in RHS, deleted (../../../va/cfet_nmos_lvt.va:684)

 **warning** *pvaW*        variable 'DVTP0' declared but not used in RHS, deleted (../../../va/cfet_nmos_lvt.va:686)

 **warning** *pvaW*        variable 'LDVTP0' declared but not used in RHS, deleted (../../../va/cfet_nmos_lvt.va:687)

 **warning** *pvaW*        variable 'NDVTP0' declared but not used in RHS, deleted (../../../va/cfet_nmos_lvt.va:688)

 **warning** *pvaW*        variable 'PDVTP0' declared but not used in RHS, deleted (../../../va/cfet_nmos_lvt.va:689)

 **warning** *pvaW*        variable 'WDVTP0' declared but not used in RHS, deleted (../../../va/cfet_nmos_lvt.va:690)

 **warning** *pvaW*        variable 'P2DVTP0' declared but not used in RHS, deleted (../../../va/cfet_nmos_lvt.va:691)

 **warning** *pvaW*        variable 'DVTP1' declared but not used in RHS, deleted (../../../va/cfet_nmos_lvt.va:693)

 **warning** *pvaW*        variable 'LDVTP1' declared but not used in RHS, deleted (../../../va/cfet_nmos_lvt.va:694)

 **warning** *pvaW*        variable 'NDVTP1' declared but not used in RHS, deleted (../../../va/cfet_nmos_lvt.va:695)

 **warning** *pvaW*        variable 'PDVTP1' declared but not used in RHS, deleted (../../../va/cfet_nmos_lvt.va:696)

 **warning** *pvaW*        variable 'WDVTP1' declared but not used in RHS, deleted (../../../va/cfet_nmos_lvt.va:697)

 **warning** *pvaW*        variable 'P2DVTP1' declared but not used in RHS, deleted (../../../va/cfet_nmos_lvt.va:698)

 **warning** *pvaW*        variable 'K1RSCE' declared but not used in RHS, deleted (../../../va/cfet_nmos_lvt.va:700)

 **warning** *pvaW*        variable 'LK1RSCE' declared but not used in RHS, deleted (../../../va/cfet_nmos_lvt.va:701)

 **warning** *pvaW*        variable 'NK1RSCE' declared but not used in RHS, deleted (../../../va/cfet_nmos_lvt.va:702)

 **warning** *pvaW*        variable 'PK1RSCE' declared but not used in RHS, deleted (../../../va/cfet_nmos_lvt.va:703)

 **warning** *pvaW*        variable 'WK1RSCE' declared but not used in RHS, deleted (../../../va/cfet_nmos_lvt.va:704)

 **warning** *pvaW*        variable 'P2K1RSCE' declared but not used in RHS, deleted (../../../va/cfet_nmos_lvt.va:705)

 **warning** *pvaW*        variable 'CKAPPAS_i' declared but not used in RHS, deleted (../../../va/cfet_nmos_lvt.va:712)

 **warning** *pvaW*        variable 'nnquaw3_4_1_cap' declared but not used in RHS, deleted (../../../va/cfet_nmos_lvt.va:905)

 **warning** *pvaW*        variable 'nnquaw3_4_2_cap' declared but not used in RHS, deleted (../../../va/cfet_nmos_lvt.va:906)

 **warning** *pvaW*        variable 'nnquaw3_4_3_cap' declared but not used in RHS, deleted (../../../va/cfet_nmos_lvt.va:907)

 **warning** *pvaW*        variable 'nnquaw3_5_1_cap' declared but not used in RHS, deleted (../../../va/cfet_nmos_lvt.va:908)

 **warning** *pvaW*        variable 'nnquaw3_5_2_cap' declared but not used in RHS, deleted (../../../va/cfet_nmos_lvt.va:909)

 **warning** *pvaW*        variable 'nnquaw3_5_3_cap' declared but not used in RHS, deleted (../../../va/cfet_nmos_lvt.va:910)

 **warning** *pvaW*        variable 'nnquaw3_6_1_cap' declared but not used in RHS, deleted (../../../va/cfet_nmos_lvt.va:911)

 **warning** *pvaW*        variable 'nnquaw3_6_2_cap' declared but not used in RHS, deleted (../../../va/cfet_nmos_lvt.va:912)

 **warning** *pvaW*        variable 'nnquaw3_6_3_cap' declared but not used in RHS, deleted (../../../va/cfet_nmos_lvt.va:913)

 **warning** *pvaW*        variable 'nnquaw3_7_1_cap' declared but not used in RHS, deleted (../../../va/cfet_nmos_lvt.va:914)

 **warning** *pvaW*        variable 'nnquaw3_7_2_cap' declared but not used in RHS, deleted (../../../va/cfet_nmos_lvt.va:915)

 **warning** *pvaW*        variable 'nnquaw3_7_3_cap' declared but not used in RHS, deleted (../../../va/cfet_nmos_lvt.va:916)

 **warning** *pvaW*        variable 'nnquab3_4_cap' declared but not used in RHS, deleted (../../../va/cfet_nmos_lvt.va:932)

 **warning** *pvaW*        variable 'nnquab3_5_cap' declared but not used in RHS, deleted (../../../va/cfet_nmos_lvt.va:933)

 **warning** *pvaW*        variable 'nnquab3_6_cap' declared but not used in RHS, deleted (../../../va/cfet_nmos_lvt.va:934)

 **warning** *pvaW*        variable 'nnquab3_7_cap' declared but not used in RHS, deleted (../../../va/cfet_nmos_lvt.va:935)

 **warning** *pvaW*        variable 'gidl_output6' initialized but not used in RHS, deleted (../../../va/cfet_nmos_lvt.va:1451)

 **warning** *pvaW*        variable 'gidl_output7' initialized but not used in RHS, deleted (../../../va/cfet_nmos_lvt.va:1452)

 **warning** *pvaW*        variable 'cv_output15' initialized but not used in RHS, deleted (../../../va/cfet_nmos_lvt.va:2242)

 **warning** *pvaW*        variable 'CGG' initialized but not used in RHS, deleted (../../../va/cfet_nmos_lvt.va:2705)

 **warning** *pvaW*        variable 'CGD' initialized but not used in RHS, deleted (../../../va/cfet_nmos_lvt.va:2706)

 **warning** *pvaW*        variable 'CGS' initialized but not used in RHS, deleted (../../../va/cfet_nmos_lvt.va:2707)

 **warning** *pvaW*        variable 'CDG' initialized but not used in RHS, deleted (../../../va/cfet_nmos_lvt.va:2708)

 **warning** *pvaW*        variable 'CDD' initialized but not used in RHS, deleted (../../../va/cfet_nmos_lvt.va:2709)

 **warning** *pvaW*        variable 'CDS' initialized but not used in RHS, deleted (../../../va/cfet_nmos_lvt.va:2710)

 **warning** *pvaW*        variable 'CSG' initialized but not used in RHS, deleted (../../../va/cfet_nmos_lvt.va:2711)

 **warning** *pvaW*        variable 'CSD' initialized but not used in RHS, deleted (../../../va/cfet_nmos_lvt.va:2712)

 **warning** *pvaW*        variable 'CSS' initialized but not used in RHS, deleted (../../../va/cfet_nmos_lvt.va:2713)

 **warning** *pvaW*        variable 'tmp1_pku' initialized but not used in RHS, deleted (../../../va/cfet_nmos_lvt.va:1994)

 **warning** *pvaW*        variable 'tmp2_pku' initialized but not used in RHS, deleted (../../../va/cfet_nmos_lvt.va:1995)

 **warning** *pvaW*        variable 'tmp3_pku' initialized but not used in RHS, deleted (../../../va/cfet_nmos_lvt.va:1996)

 **warning** *pvaW*        variable 'tmp4_pku' initialized but not used in RHS, deleted (../../../va/cfet_nmos_lvt.va:1997)

 **warning** *pvaW*        variable 'tmp5_pku' initialized but not used in RHS, deleted (../../../va/cfet_nmos_lvt.va:1998)

 **warning** *pvaW*        variable 'vfbsd1' declared but not used in RHS, deleted (../../../va/cfet_nmos_lvt.va:1199)

 **warning** *pvaW*        variable 'vgs_a' declared but not used in RHS, deleted (../../../va/cfet_nmos_lvt.va:1199)

 **warning** *pvaW*        variable 'vgd_a' declared but not used in RHS, deleted (../../../va/cfet_nmos_lvt.va:1199)

 **warning** *pvaW*        variable 'WeffB' initialized but not used in RHS, deleted (../../../va/cfet_nmos_lvt.va:2317)

 **warning** *pvaW*        variable 'd1' declared but not used in RHS, deleted (../../../va/cfet_nmos_lvt.va:1203)

 **warning** *pvaW*        variable 'd2' declared but not used in RHS, deleted (../../../va/cfet_nmos_lvt.va:1203)

 **warning** *pvaW*        variable 'd3' declared but not used in RHS, deleted (../../../va/cfet_nmos_lvt.va:1203)

 **warning** *pvaW*        variable 'p1' declared but not used in RHS, deleted (../../../va/cfet_nmos_lvt.va:1203)

 **warning** *pvaW*        variable 'p2' declared but not used in RHS, deleted (../../../va/cfet_nmos_lvt.va:1203)

 **warning** *pvaW*        variable 'p3' declared but not used in RHS, deleted (../../../va/cfet_nmos_lvt.va:1203)

 **warning** *pvaW*        variable 'Tp1' declared but not used in RHS, deleted (../../../va/cfet_nmos_lvt.va:1203)

 **warning** *pvaW*        variable 'Tp2' declared but not used in RHS, deleted (../../../va/cfet_nmos_lvt.va:1203)

 **warning** *pvaW*        variable 'Tp3' declared but not used in RHS, deleted (../../../va/cfet_nmos_lvt.va:1203)

 **warning** *pvaW*        variable 'Wp1' declared but not used in RHS, deleted (../../../va/cfet_nmos_lvt.va:1203)

 **warning** *pvaW*        variable 'Wp2' declared but not used in RHS, deleted (../../../va/cfet_nmos_lvt.va:1203)

 **warning** *pvaW*        variable 'Wp3' declared but not used in RHS, deleted (../../../va/cfet_nmos_lvt.va:1203)

 **warning** *pvaW*        variable 'VnD1' declared but not used in RHS, deleted (../../../va/cfet_nmos_lvt.va:1211)

 **warning** *pvaW*        variable 'qndnf1' declared but not used in RHS, deleted (../../../va/cfet_nmos_lvt.va:1211)

 **warning** *pvaW*        variable 'VnD2' declared but not used in RHS, deleted (../../../va/cfet_nmos_lvt.va:1211)

 **warning** *pvaW*        variable 'qndnf2' declared but not used in RHS, deleted (../../../va/cfet_nmos_lvt.va:1211)

 **warning** *pvaW*        variable 'VnD3' declared but not used in RHS, deleted (../../../va/cfet_nmos_lvt.va:1211)

 **warning** *pvaW*        variable 'qndnf3' declared but not used in RHS, deleted (../../../va/cfet_nmos_lvt.va:1211)

 **warning** *pvaW*        variable 'nc3d0' declared but not used in RHS, deleted (../../../va/cfet_nmos_lvt.va:1211)

 **warning** *pvaW*        variable 'nc3d' declared but not used in RHS, deleted (../../../va/cfet_nmos_lvt.va:1211)

 **warning** *pvaW*        variable 'ncq' declared but not used in RHS, deleted (../../../va/cfet_nmos_lvt.va:1211)

 **warning** *pvaW*        variable 'QT0' declared but not used in RHS, deleted (../../../va/cfet_nmos_lvt.va:1211)

 **warning** *pvaW*        variable 'QT1' declared but not used in RHS, deleted (../../../va/cfet_nmos_lvt.va:1211)

 **warning** *pvaW*        variable 'ne2h' declared but not used in RHS, deleted (../../../va/cfet_nmos_lvt.va:1211)

 **warning** *pvaW*        variable 'pe2h' declared but not used in RHS, deleted (../../../va/cfet_nmos_lvt.va:1211)

 **warning** *pvaW*        variable 'ne3h' declared but not used in RHS, deleted (../../../va/cfet_nmos_lvt.va:1211)

 **warning** *pvaW*        variable 'pe3h' declared but not used in RHS, deleted (../../../va/cfet_nmos_lvt.va:1211)

 **warning** *pvaW*        variable 'nc1l0' declared but not used in RHS, deleted (../../../va/cfet_nmos_lvt.va:1211)

 **warning** *pvaW*        variable 'pnc1l' declared but not used in RHS, deleted (../../../va/cfet_nmos_lvt.va:1211)

 **warning** *pvaW*        variable 'nc2l0' declared but not used in RHS, deleted (../../../va/cfet_nmos_lvt.va:1211)

 **warning** *pvaW*        variable 'pnc2l' declared but not used in RHS, deleted (../../../va/cfet_nmos_lvt.va:1211)

 **warning** *pvaW*        variable 'nc3l0' declared but not used in RHS, deleted (../../../va/cfet_nmos_lvt.va:1211)

 **warning** *pvaW*        variable 'pnc3l' declared but not used in RHS, deleted (../../../va/cfet_nmos_lvt.va:1211)

 **warning** *pvaW*        variable 'qe2n' declared but not used in RHS, deleted (../../../va/cfet_nmos_lvt.va:1211)

 **warning** *pvaW*        variable 'qe3n' declared but not used in RHS, deleted (../../../va/cfet_nmos_lvt.va:1211)

 **warning** *pvaW*        variable 'qe2' declared but not used in RHS, deleted (../../../va/cfet_nmos_lvt.va:1211)

 **warning** *pvaW*        variable 'qe3' declared but not used in RHS, deleted (../../../va/cfet_nmos_lvt.va:1211)

 **warning** *pvaW*        variable 'nc1l' declared but not used in RHS, deleted (../../../va/cfet_nmos_lvt.va:1211)

 **warning** *pvaW*        variable 'nc1ln' declared but not used in RHS, deleted (../../../va/cfet_nmos_lvt.va:1211)

 **warning** *pvaW*        variable 'nc1' declared but not used in RHS, deleted (../../../va/cfet_nmos_lvt.va:1211)

 **warning** *pvaW*        variable 'nc2l' declared but not used in RHS, deleted (../../../va/cfet_nmos_lvt.va:1211)

 **warning** *pvaW*        variable 'nc2ln' declared but not used in RHS, deleted (../../../va/cfet_nmos_lvt.va:1211)

 **warning** *pvaW*        variable 'nc2' declared but not used in RHS, deleted (../../../va/cfet_nmos_lvt.va:1211)

 **warning** *pvaW*        variable 'nc3l' declared but not used in RHS, deleted (../../../va/cfet_nmos_lvt.va:1211)

 **warning** *pvaW*        variable 'nc3ln' declared but not used in RHS, deleted (../../../va/cfet_nmos_lvt.va:1211)

 **warning** *pvaW*        variable 'nc3' declared but not used in RHS, deleted (../../../va/cfet_nmos_lvt.va:1211)

 **warning** *pvaW*        variable 'qnd10' declared but not used in RHS, deleted (../../../va/cfet_nmos_lvt.va:1211)

 **warning** *pvaW*        variable 'qnd20' declared but not used in RHS, deleted (../../../va/cfet_nmos_lvt.va:1211)

 **warning** *pvaW*        variable 'qnd30' declared but not used in RHS, deleted (../../../va/cfet_nmos_lvt.va:1211)

 **warning** *pvaW*        variable 'GM' initialized but not used in RHS, deleted (../../../va/cfet_nmos_lvt.va:2702)

 **warning** *pvaW*        variable 'GDS' initialized but not used in RHS, deleted (../../../va/cfet_nmos_lvt.va:2703)

 **warning** *pvaW*        variable 'qndd1' declared but not used in RHS, deleted (../../../va/cfet_nmos_lvt.va:1215)

 **warning** *pvaW*        variable 'qndd2' declared but not used in RHS, deleted (../../../va/cfet_nmos_lvt.va:1215)

 **warning** *pvaW*        variable 'qndd3' declared but not used in RHS, deleted (../../../va/cfet_nmos_lvt.va:1215)

 **warning** *pvaW*        variable 'QT2' declared but not used in RHS, deleted (../../../va/cfet_nmos_lvt.va:1234)

 **warning** *pvaW*        variable 'QT3' declared but not used in RHS, deleted (../../../va/cfet_nmos_lvt.va:1234)

 **warning** *pvaW*        variable 'QT4' declared but not used in RHS, deleted (../../../va/cfet_nmos_lvt.va:1234)

 **warning** *pvaW*        variable 'qnds1' declared but not used in RHS, deleted (../../../va/cfet_nmos_lvt.va:1234)

 **warning** *pvaW*        variable 'QT5' declared but not used in RHS, deleted (../../../va/cfet_nmos_lvt.va:1234)

 **warning** *pvaW*        variable 'QT6' declared but not used in RHS, deleted (../../../va/cfet_nmos_lvt.va:1234)

 **warning** *pvaW*        variable 'QT7' declared but not used in RHS, deleted (../../../va/cfet_nmos_lvt.va:1234)

 **warning** *pvaW*        variable 'qnds2' declared but not used in RHS, deleted (../../../va/cfet_nmos_lvt.va:1234)

 **warning** *pvaW*        variable 'QT8' declared but not used in RHS, deleted (../../../va/cfet_nmos_lvt.va:1234)

 **warning** *pvaW*        variable 'QT9' declared but not used in RHS, deleted (../../../va/cfet_nmos_lvt.va:1234)

 **warning** *pvaW*        variable 'QT10' declared but not used in RHS, deleted (../../../va/cfet_nmos_lvt.va:1234)

 **warning** *pvaW*        variable 'qnds3' declared but not used in RHS, deleted (../../../va/cfet_nmos_lvt.va:1234)

 **warning** *pvaW*        variable 'TOXG1' declared but not used in RHS, deleted (../../../va/cfet_nmos_lvt.va:1234)

 **warning** *pvaW*        variable 'igtemp' declared but not used in RHS, deleted (../../../va/cfet_nmos_lvt.va:1234)

 **warning** *pvaW*        variable 'Tox_ratio' declared but not used in RHS, deleted (../../../va/cfet_nmos_lvt.va:1234)

 **warning** *pvaW*        variable 'T0_g' declared but not used in RHS, deleted (../../../va/cfet_nmos_lvt.va:1234)

 **warning** *pvaW*        variable 'igc' declared but not used in RHS, deleted (../../../va/cfet_nmos_lvt.va:1234)

 **warning** *pvaW*        variable 'igs' declared but not used in RHS, deleted (../../../va/cfet_nmos_lvt.va:1234)

 **warning** *pvaW*        variable 'igd' declared but not used in RHS, deleted (../../../va/cfet_nmos_lvt.va:1234)

 **warning** *pvaW*        variable 'ig' declared but not used in RHS, deleted (../../../va/cfet_nmos_lvt.va:1234)

 **warning** *pvaW*        variable 'vgd' declared but not used in RHS, deleted (../../../va/cfet_nmos_lvt.va:1234)

 **warning** *pvaW*        variable 'NTOX_i' declared but not used in RHS, deleted (../../../va/cfet_nmos_lvt.va:1240)

 **warning** *pvaW*        variable 'mut0' declared but not used in RHS, deleted (../../../va/cfet_nmos_lvt.va:1240)

 **warning** *pvaW*        variable 'mut1' declared but not used in RHS, deleted (../../../va/cfet_nmos_lvt.va:1240)

 **warning** *pvaW*        variable 'mut2' declared but not used in RHS, deleted (../../../va/cfet_nmos_lvt.va:1240)

 **warning** *pvaW*        variable 'mut3' declared but not used in RHS, deleted (../../../va/cfet_nmos_lvt.va:1240)

 **warning** *pvaW*        variable 'mut4' declared but not used in RHS, deleted (../../../va/cfet_nmos_lvt.va:1240)

 **warning** *pvaW*        variable 'mut5' declared but not used in RHS, deleted (../../../va/cfet_nmos_lvt.va:1240)

 **warning** *pvaW*        variable 'mut6' declared but not used in RHS, deleted (../../../va/cfet_nmos_lvt.va:1240)

 **warning** *pvaW*        variable 'ids_tmp' initialized but not used in RHS, deleted (../../../va/cfet_nmos_lvt.va:2652)

 **info** *pvaI*        port 'B' at 4 declared, but not used

 **info** *pvaI*        generated 0 flow node(s) during compilation.

 **info** *pvaI* #### Total 2188 line-size(s), 136/1414 expr(s), 4 contr(s), 0 init(s), 980 behav(s), 4 port(s)

 Loading pVA library C:\Users\Tengfei\Desktop\Project_DTCO\AutoLDM\Hspice\iv\fit_nmos_idvg_vmax1\results\fit_l107\fit_l107.pvadir\pvaRTL_win64.dll...
1****** HSPICE -- P-2019.06-SP1-1 win64 (Sep 27 2019) ******                    
 ******  
 ***********************************************************************

 ****** circuit name directory
 circuit number to circuit name directory
   number circuitname                     definition         multiplier
        0 main circuit
        1 xmn.                            cfet_nmos_lvt(va)
                                                                 1.00 
 **info** *pvaI* Creating VA module (cfet_nmos_lvt) for instance XMN with gmd reduction

 **info** *pvaI*        termCount=4 diwSize=16 probeSize=1086 Qsize=2 Isize=1

 End of GMD creation on Thu Jul  9 11:01:41 2026	


  
      
 *****************************************************************
 ******  option summary
 ******
 runlvl  = 3         bypass  = 2.0000    
  Opening plot unit= 79
 file=C:\Users\Tengfei\Desktop\Project_DTCO\AutoLDM\Hspice\iv\fit_nmos_idvg_vmax1\results\fit_l107\fit_l107.pa0

 End of pVA setup    on Thu Jul  9 11:01:41 2026	


 Begin of pVA simulation on Thu Jul  9 11:01:41 2026	


 ******
 ***********************************************************************

 ****** dc transfer curves tnom=  25.000 temp=  25.000 ******
  *** parameter 0:vd  =   5.000e-02       ***
  
x

 volt         voltage    voltage    current    param     
             g          d          vd         -i(vd)     
  0.0000e+00  0.000e+00  5.000e-02 -1.849e-12  1.849e-12 
  2.0000e-03  2.000e-03  5.000e-02 -1.991e-12  1.991e-12 
  4.0000e-03  4.000e-03  5.000e-02 -2.145e-12  2.145e-12 
  6.0000e-03  6.000e-03  5.000e-02 -2.310e-12  2.310e-12 
  8.0000e-03  8.000e-03  5.000e-02 -2.488e-12  2.488e-12 
  1.0000e-02  1.000e-02  5.000e-02 -2.680e-12  2.680e-12 
  1.2000e-02  1.200e-02  5.000e-02 -2.887e-12  2.887e-12 
  1.4000e-02  1.400e-02  5.000e-02 -3.109e-12  3.109e-12 
  1.6000e-02  1.600e-02  5.000e-02 -3.349e-12  3.349e-12 
  1.8000e-02  1.800e-02  5.000e-02 -3.607e-12  3.607e-12 
  2.0000e-02  2.000e-02  5.000e-02 -3.885e-12  3.885e-12 
  2.2000e-02  2.200e-02  5.000e-02 -4.185e-12  4.185e-12 
  2.4000e-02  2.400e-02  5.000e-02 -4.507e-12  4.507e-12 
  2.6000e-02  2.600e-02  5.000e-02 -4.855e-12  4.855e-12 
  2.8000e-02  2.800e-02  5.000e-02 -5.229e-12  5.229e-12 
  3.0000e-02  3.000e-02  5.000e-02 -5.632e-12  5.632e-12 
  3.2000e-02  3.200e-02  5.000e-02 -6.066e-12  6.066e-12 
  3.4000e-02  3.400e-02  5.000e-02 -6.534e-12  6.534e-12 
  3.6000e-02  3.600e-02  5.000e-02 -7.038e-12  7.038e-12 
  3.8000e-02  3.800e-02  5.000e-02 -7.580e-12  7.580e-12 
  4.0000e-02  4.000e-02  5.000e-02 -8.165e-12  8.165e-12 
  4.2000e-02  4.200e-02  5.000e-02 -8.794e-12  8.794e-12 
  4.4000e-02  4.400e-02  5.000e-02 -9.472e-12  9.472e-12 
  4.6000e-02  4.600e-02  5.000e-02 -1.020e-11  1.020e-11 
  4.8000e-02  4.800e-02  5.000e-02 -1.099e-11  1.099e-11 
  5.0000e-02  5.000e-02  5.000e-02 -1.184e-11  1.184e-11 
  5.2000e-02  5.200e-02  5.000e-02 -1.275e-11  1.275e-11 
  5.4000e-02  5.400e-02  5.000e-02 -1.373e-11  1.373e-11 
  5.6000e-02  5.600e-02  5.000e-02 -1.479e-11  1.479e-11 
  5.8000e-02  5.800e-02  5.000e-02 -1.593e-11  1.593e-11 
  6.0000e-02  6.000e-02  5.000e-02 -1.716e-11  1.716e-11 
  6.2000e-02  6.200e-02  5.000e-02 -1.848e-11  1.848e-11 
  6.4000e-02  6.400e-02  5.000e-02 -1.990e-11  1.990e-11 
  6.6000e-02  6.600e-02  5.000e-02 -2.144e-11  2.144e-11 
  6.8000e-02  6.800e-02  5.000e-02 -2.309e-11  2.309e-11 
  7.0000e-02  7.000e-02  5.000e-02 -2.487e-11  2.487e-11 
  7.2000e-02  7.200e-02  5.000e-02 -2.679e-11  2.679e-11 
  7.4000e-02  7.400e-02  5.000e-02 -2.885e-11  2.885e-11 
  7.6000e-02  7.600e-02  5.000e-02 -3.108e-11  3.108e-11 
  7.8000e-02  7.800e-02  5.000e-02 -3.347e-11  3.347e-11 
  8.0000e-02  8.000e-02  5.000e-02 -3.605e-11  3.605e-11 
  8.2000e-02  8.200e-02  5.000e-02 -3.883e-11  3.883e-11 
  8.4000e-02  8.400e-02  5.000e-02 -4.183e-11  4.183e-11 
  8.6000e-02  8.600e-02  5.000e-02 -4.505e-11  4.505e-11 
  8.8000e-02  8.800e-02  5.000e-02 -4.852e-11  4.852e-11 
  9.0000e-02  9.000e-02  5.000e-02 -5.226e-11  5.226e-11 
  9.2000e-02  9.200e-02  5.000e-02 -5.629e-11  5.629e-11 
  9.4000e-02  9.400e-02  5.000e-02 -6.063e-11  6.063e-11 
  9.6000e-02  9.600e-02  5.000e-02 -6.531e-11  6.531e-11 
  9.8000e-02  9.800e-02  5.000e-02 -7.034e-11  7.034e-11 
  1.0000e-01  1.000e-01  5.000e-02 -7.576e-11  7.576e-11 
  1.0200e-01  1.020e-01  5.000e-02 -8.160e-11  8.160e-11 
  1.0400e-01  1.040e-01  5.000e-02 -8.789e-11  8.789e-11 
  1.0600e-01  1.060e-01  5.000e-02 -9.467e-11  9.467e-11 
  1.0800e-01  1.080e-01  5.000e-02 -1.020e-10  1.020e-10 
  1.1000e-01  1.100e-01  5.000e-02 -1.098e-10  1.098e-10 
  1.1200e-01  1.120e-01  5.000e-02 -1.183e-10  1.183e-10 
  1.1400e-01  1.140e-01  5.000e-02 -1.274e-10  1.274e-10 
  1.1600e-01  1.160e-01  5.000e-02 -1.372e-10  1.372e-10 
  1.1800e-01  1.180e-01  5.000e-02 -1.478e-10  1.478e-10 
  1.2000e-01  1.200e-01  5.000e-02 -1.592e-10  1.592e-10 
  1.2200e-01  1.220e-01  5.000e-02 -1.715e-10  1.715e-10 
  1.2400e-01  1.240e-01  5.000e-02 -1.847e-10  1.847e-10 
  1.2600e-01  1.260e-01  5.000e-02 -1.989e-10  1.989e-10 
  1.2800e-01  1.280e-01  5.000e-02 -2.142e-10  2.142e-10 
  1.3000e-01  1.300e-01  5.000e-02 -2.308e-10  2.308e-10 
  1.3200e-01  1.320e-01  5.000e-02 -2.485e-10  2.485e-10 
  1.3400e-01  1.340e-01  5.000e-02 -2.677e-10  2.677e-10 
  1.3600e-01  1.360e-01  5.000e-02 -2.883e-10  2.883e-10 
  1.3800e-01  1.380e-01  5.000e-02 -3.106e-10  3.106e-10 
  1.4000e-01  1.400e-01  5.000e-02 -3.345e-10  3.345e-10 
  1.4200e-01  1.420e-01  5.000e-02 -3.603e-10  3.603e-10 
  1.4400e-01  1.440e-01  5.000e-02 -3.880e-10  3.880e-10 
  1.4600e-01  1.460e-01  5.000e-02 -4.179e-10  4.179e-10 
  1.4800e-01  1.480e-01  5.000e-02 -4.501e-10  4.501e-10 
  1.5000e-01  1.500e-01  5.000e-02 -4.848e-10  4.848e-10 
  1.5200e-01  1.520e-01  5.000e-02 -5.222e-10  5.222e-10 
  1.5400e-01  1.540e-01  5.000e-02 -5.624e-10  5.624e-10 
  1.5600e-01  1.560e-01  5.000e-02 -6.058e-10  6.058e-10 
  1.5800e-01  1.580e-01  5.000e-02 -6.524e-10  6.524e-10 
  1.6000e-01  1.600e-01  5.000e-02 -7.027e-10  7.027e-10 
  1.6200e-01  1.620e-01  5.000e-02 -7.568e-10  7.568e-10 
  1.6400e-01  1.640e-01  5.000e-02 -8.151e-10  8.151e-10 
  1.6600e-01  1.660e-01  5.000e-02 -8.779e-10  8.779e-10 
  1.6800e-01  1.680e-01  5.000e-02 -9.455e-10  9.455e-10 
  1.7000e-01  1.700e-01  5.000e-02 -1.018e-09  1.018e-09 
  1.7200e-01  1.720e-01  5.000e-02 -1.097e-09  1.097e-09 
  1.7400e-01  1.740e-01  5.000e-02 -1.181e-09  1.181e-09 
  1.7600e-01  1.760e-01  5.000e-02 -1.272e-09  1.272e-09 
  1.7800e-01  1.780e-01  5.000e-02 -1.370e-09  1.370e-09 
  1.8000e-01  1.800e-01  5.000e-02 -1.476e-09  1.476e-09 
  1.8200e-01  1.820e-01  5.000e-02 -1.589e-09  1.589e-09 
  1.8400e-01  1.840e-01  5.000e-02 -1.712e-09  1.712e-09 
  1.8600e-01  1.860e-01  5.000e-02 -1.843e-09  1.843e-09 
  1.8800e-01  1.880e-01  5.000e-02 -1.985e-09  1.985e-09 
  1.9000e-01  1.900e-01  5.000e-02 -2.138e-09  2.138e-09 
  1.9200e-01  1.920e-01  5.000e-02 -2.303e-09  2.303e-09 
  1.9400e-01  1.940e-01  5.000e-02 -2.480e-09  2.480e-09 
  1.9600e-01  1.960e-01  5.000e-02 -2.670e-09  2.670e-09 
  1.9800e-01  1.980e-01  5.000e-02 -2.876e-09  2.876e-09 
  2.0000e-01  2.000e-01  5.000e-02 -3.097e-09  3.097e-09 
  2.0200e-01  2.020e-01  5.000e-02 -3.335e-09  3.335e-09 
  2.0400e-01  2.040e-01  5.000e-02 -3.591e-09  3.591e-09 
  2.0600e-01  2.060e-01  5.000e-02 -3.867e-09  3.867e-09 
  2.0800e-01  2.080e-01  5.000e-02 -4.164e-09  4.164e-09 
  2.1000e-01  2.100e-01  5.000e-02 -4.484e-09  4.484e-09 
  2.1200e-01  2.120e-01  5.000e-02 -4.828e-09  4.828e-09 
  2.1400e-01  2.140e-01  5.000e-02 -5.199e-09  5.199e-09 
  2.1600e-01  2.160e-01  5.000e-02 -5.598e-09  5.598e-09 
  2.1800e-01  2.180e-01  5.000e-02 -6.027e-09  6.027e-09 
  2.2000e-01  2.200e-01  5.000e-02 -6.489e-09  6.489e-09 
  2.2200e-01  2.220e-01  5.000e-02 -6.987e-09  6.987e-09 
  2.2400e-01  2.240e-01  5.000e-02 -7.522e-09  7.522e-09 
  2.2600e-01  2.260e-01  5.000e-02 -8.098e-09  8.098e-09 
  2.2800e-01  2.280e-01  5.000e-02 -8.718e-09  8.718e-09 
  2.3000e-01  2.300e-01  5.000e-02 -9.385e-09  9.385e-09 
  2.3200e-01  2.320e-01  5.000e-02 -1.010e-08  1.010e-08 
  2.3400e-01  2.340e-01  5.000e-02 -1.087e-08  1.087e-08 
  2.3600e-01  2.360e-01  5.000e-02 -1.170e-08  1.170e-08 
  2.3800e-01  2.380e-01  5.000e-02 -1.260e-08  1.260e-08 
  2.4000e-01  2.400e-01  5.000e-02 -1.356e-08  1.356e-08 
  2.4200e-01  2.420e-01  5.000e-02 -1.459e-08  1.459e-08 
  2.4400e-01  2.440e-01  5.000e-02 -1.570e-08  1.570e-08 
  2.4600e-01  2.460e-01  5.000e-02 -1.690e-08  1.690e-08 
  2.4800e-01  2.480e-01  5.000e-02 -1.818e-08  1.818e-08 
  2.5000e-01  2.500e-01  5.000e-02 -1.956e-08  1.956e-08 
  2.5200e-01  2.520e-01  5.000e-02 -2.104e-08  2.104e-08 
  2.5400e-01  2.540e-01  5.000e-02 -2.263e-08  2.263e-08 
  2.5600e-01  2.560e-01  5.000e-02 -2.434e-08  2.434e-08 
  2.5800e-01  2.580e-01  5.000e-02 -2.618e-08  2.618e-08 
  2.6000e-01  2.600e-01  5.000e-02 -2.816e-08  2.816e-08 
  2.6200e-01  2.620e-01  5.000e-02 -3.027e-08  3.027e-08 
  2.6400e-01  2.640e-01  5.000e-02 -3.255e-08  3.255e-08 
  2.6600e-01  2.660e-01  5.000e-02 -3.499e-08  3.499e-08 
  2.6800e-01  2.680e-01  5.000e-02 -3.761e-08  3.761e-08 
  2.7000e-01  2.700e-01  5.000e-02 -4.042e-08  4.042e-08 
  2.7200e-01  2.720e-01  5.000e-02 -4.343e-08  4.343e-08 
  2.7400e-01  2.740e-01  5.000e-02 -4.665e-08  4.665e-08 
  2.7600e-01  2.760e-01  5.000e-02 -5.011e-08  5.011e-08 
  2.7800e-01  2.780e-01  5.000e-02 -5.382e-08  5.382e-08 
  2.8000e-01  2.800e-01  5.000e-02 -5.778e-08  5.778e-08 
  2.8200e-01  2.820e-01  5.000e-02 -6.203e-08  6.203e-08 
  2.8400e-01  2.840e-01  5.000e-02 -6.657e-08  6.657e-08 
  2.8600e-01  2.860e-01  5.000e-02 -7.143e-08  7.143e-08 
  2.8800e-01  2.880e-01  5.000e-02 -7.663e-08  7.663e-08 
  2.9000e-01  2.900e-01  5.000e-02 -8.218e-08  8.218e-08 
  2.9200e-01  2.920e-01  5.000e-02 -8.810e-08  8.810e-08 
  2.9400e-01  2.940e-01  5.000e-02 -9.443e-08  9.443e-08 
  2.9600e-01  2.960e-01  5.000e-02 -1.012e-07  1.012e-07 
  2.9800e-01  2.980e-01  5.000e-02 -1.084e-07  1.084e-07 
  3.0000e-01  3.000e-01  5.000e-02 -1.160e-07  1.160e-07 
  3.0200e-01  3.020e-01  5.000e-02 -1.242e-07  1.242e-07 
  3.0400e-01  3.040e-01  5.000e-02 -1.329e-07  1.329e-07 
  3.0600e-01  3.060e-01  5.000e-02 -1.421e-07  1.421e-07 
  3.0800e-01  3.080e-01  5.000e-02 -1.520e-07  1.520e-07 
  3.1000e-01  3.100e-01  5.000e-02 -1.624e-07  1.624e-07 
  3.1200e-01  3.120e-01  5.000e-02 -1.734e-07  1.734e-07 
  3.1400e-01  3.140e-01  5.000e-02 -1.852e-07  1.852e-07 
  3.1600e-01  3.160e-01  5.000e-02 -1.976e-07  1.976e-07 
  3.1800e-01  3.180e-01  5.000e-02 -2.107e-07  2.107e-07 
  3.2000e-01  3.200e-01  5.000e-02 -2.246e-07  2.246e-07 
  3.2200e-01  3.220e-01  5.000e-02 -2.393e-07  2.393e-07 
  3.2400e-01  3.240e-01  5.000e-02 -2.548e-07  2.548e-07 
  3.2600e-01  3.260e-01  5.000e-02 -2.712e-07  2.712e-07 
  3.2800e-01  3.280e-01  5.000e-02 -2.884e-07  2.884e-07 
  3.3000e-01  3.300e-01  5.000e-02 -3.066e-07  3.066e-07 
  3.3200e-01  3.320e-01  5.000e-02 -3.256e-07  3.256e-07 
  3.3400e-01  3.340e-01  5.000e-02 -3.457e-07  3.457e-07 
  3.3600e-01  3.360e-01  5.000e-02 -3.667e-07  3.667e-07 
  3.3800e-01  3.380e-01  5.000e-02 -3.887e-07  3.887e-07 
  3.4000e-01  3.400e-01  5.000e-02 -4.118e-07  4.118e-07 
  3.4200e-01  3.420e-01  5.000e-02 -4.359e-07  4.359e-07 
  3.4400e-01  3.440e-01  5.000e-02 -4.612e-07  4.612e-07 
  3.4600e-01  3.460e-01  5.000e-02 -4.875e-07  4.875e-07 
  3.4800e-01  3.480e-01  5.000e-02 -5.150e-07  5.150e-07 
  3.5000e-01  3.500e-01  5.000e-02 -5.436e-07  5.436e-07 
  3.5200e-01  3.520e-01  5.000e-02 -5.734e-07  5.734e-07 
  3.5400e-01  3.540e-01  5.000e-02 -6.043e-07  6.043e-07 
  3.5600e-01  3.560e-01  5.000e-02 -6.364e-07  6.364e-07 
  3.5800e-01  3.580e-01  5.000e-02 -6.698e-07  6.698e-07 
  3.6000e-01  3.600e-01  5.000e-02 -7.043e-07  7.043e-07 
  3.6200e-01  3.620e-01  5.000e-02 -7.400e-07  7.400e-07 
  3.6400e-01  3.640e-01  5.000e-02 -7.770e-07  7.770e-07 
  3.6600e-01  3.660e-01  5.000e-02 -8.152e-07  8.152e-07 
  3.6800e-01  3.680e-01  5.000e-02 -8.546e-07  8.546e-07 
  3.7000e-01  3.700e-01  5.000e-02 -8.952e-07  8.952e-07 
  3.7200e-01  3.720e-01  5.000e-02 -9.370e-07  9.370e-07 
  3.7400e-01  3.740e-01  5.000e-02 -9.800e-07  9.800e-07 
  3.7600e-01  3.760e-01  5.000e-02 -1.024e-06  1.024e-06 
  3.7800e-01  3.780e-01  5.000e-02 -1.070e-06  1.070e-06 
  3.8000e-01  3.800e-01  5.000e-02 -1.116e-06  1.116e-06 
  3.8200e-01  3.820e-01  5.000e-02 -1.164e-06  1.164e-06 
  3.8400e-01  3.840e-01  5.000e-02 -1.213e-06  1.213e-06 
  3.8600e-01  3.860e-01  5.000e-02 -1.263e-06  1.263e-06 
  3.8800e-01  3.880e-01  5.000e-02 -1.314e-06  1.314e-06 
  3.9000e-01  3.900e-01  5.000e-02 -1.366e-06  1.366e-06 
  3.9200e-01  3.920e-01  5.000e-02 -1.419e-06  1.419e-06 
  3.9400e-01  3.940e-01  5.000e-02 -1.474e-06  1.474e-06 
  3.9600e-01  3.960e-01  5.000e-02 -1.529e-06  1.529e-06 
  3.9800e-01  3.980e-01  5.000e-02 -1.585e-06  1.585e-06 
  4.0000e-01  4.000e-01  5.000e-02 -1.643e-06  1.643e-06 
  4.0200e-01  4.020e-01  5.000e-02 -1.701e-06  1.701e-06 
  4.0400e-01  4.040e-01  5.000e-02 -1.760e-06  1.760e-06 
  4.0600e-01  4.060e-01  5.000e-02 -1.820e-06  1.820e-06 
  4.0800e-01  4.080e-01  5.000e-02 -1.881e-06  1.881e-06 
  4.1000e-01  4.100e-01  5.000e-02 -1.943e-06  1.943e-06 
  4.1200e-01  4.120e-01  5.000e-02 -2.006e-06  2.006e-06 
  4.1400e-01  4.140e-01  5.000e-02 -2.069e-06  2.069e-06 
  4.1600e-01  4.160e-01  5.000e-02 -2.133e-06  2.133e-06 
  4.1800e-01  4.180e-01  5.000e-02 -2.198e-06  2.198e-06 
  4.2000e-01  4.200e-01  5.000e-02 -2.264e-06  2.264e-06 
  4.2200e-01  4.220e-01  5.000e-02 -2.330e-06  2.330e-06 
  4.2400e-01  4.240e-01  5.000e-02 -2.397e-06  2.397e-06 
  4.2600e-01  4.260e-01  5.000e-02 -2.464e-06  2.464e-06 
  4.2800e-01  4.280e-01  5.000e-02 -2.532e-06  2.532e-06 
  4.3000e-01  4.300e-01  5.000e-02 -2.601e-06  2.601e-06 
  4.3200e-01  4.320e-01  5.000e-02 -2.670e-06  2.670e-06 
  4.3400e-01  4.340e-01  5.000e-02 -2.739e-06  2.739e-06 
  4.3600e-01  4.360e-01  5.000e-02 -2.810e-06  2.810e-06 
  4.3800e-01  4.380e-01  5.000e-02 -2.880e-06  2.880e-06 
  4.4000e-01  4.400e-01  5.000e-02 -2.951e-06  2.951e-06 
  4.4200e-01  4.420e-01  5.000e-02 -3.022e-06  3.022e-06 
  4.4400e-01  4.440e-01  5.000e-02 -3.094e-06  3.094e-06 
  4.4600e-01  4.460e-01  5.000e-02 -3.166e-06  3.166e-06 
  4.4800e-01  4.480e-01  5.000e-02 -3.238e-06  3.238e-06 
  4.5000e-01  4.500e-01  5.000e-02 -3.311e-06  3.311e-06 
  4.5200e-01  4.520e-01  5.000e-02 -3.384e-06  3.384e-06 
  4.5400e-01  4.540e-01  5.000e-02 -3.457e-06  3.457e-06 
  4.5600e-01  4.560e-01  5.000e-02 -3.530e-06  3.530e-06 
  4.5800e-01  4.580e-01  5.000e-02 -3.604e-06  3.604e-06 
  4.6000e-01  4.600e-01  5.000e-02 -3.677e-06  3.677e-06 
  4.6200e-01  4.620e-01  5.000e-02 -3.751e-06  3.751e-06 
  4.6400e-01  4.640e-01  5.000e-02 -3.825e-06  3.825e-06 
  4.6600e-01  4.660e-01  5.000e-02 -3.899e-06  3.899e-06 
  4.6800e-01  4.680e-01  5.000e-02 -3.973e-06  3.973e-06 
  4.7000e-01  4.700e-01  5.000e-02 -4.048e-06  4.048e-06 
  4.7200e-01  4.720e-01  5.000e-02 -4.122e-06  4.122e-06 
  4.7400e-01  4.740e-01  5.000e-02 -4.196e-06  4.196e-06 
  4.7600e-01  4.760e-01  5.000e-02 -4.271e-06  4.271e-06 
  4.7800e-01  4.780e-01  5.000e-02 -4.345e-06  4.345e-06 
  4.8000e-01  4.800e-01  5.000e-02 -4.419e-06  4.419e-06 
  4.8200e-01  4.820e-01  5.000e-02 -4.494e-06  4.494e-06 
  4.8400e-01  4.840e-01  5.000e-02 -4.568e-06  4.568e-06 
  4.8600e-01  4.860e-01  5.000e-02 -4.642e-06  4.642e-06 
  4.8800e-01  4.880e-01  5.000e-02 -4.716e-06  4.716e-06 
  4.9000e-01  4.900e-01  5.000e-02 -4.790e-06  4.790e-06 
  4.9200e-01  4.920e-01  5.000e-02 -4.864e-06  4.864e-06 
  4.9400e-01  4.940e-01  5.000e-02 -4.938e-06  4.938e-06 
  4.9600e-01  4.960e-01  5.000e-02 -5.012e-06  5.012e-06 
  4.9800e-01  4.980e-01  5.000e-02 -5.086e-06  5.086e-06 
  5.0000e-01  5.000e-01  5.000e-02 -5.159e-06  5.159e-06 
  5.0200e-01  5.020e-01  5.000e-02 -5.232e-06  5.232e-06 
  5.0400e-01  5.040e-01  5.000e-02 -5.305e-06  5.305e-06 
  5.0600e-01  5.060e-01  5.000e-02 -5.378e-06  5.378e-06 
  5.0800e-01  5.080e-01  5.000e-02 -5.451e-06  5.451e-06 
  5.1000e-01  5.100e-01  5.000e-02 -5.524e-06  5.524e-06 
  5.1200e-01  5.120e-01  5.000e-02 -5.596e-06  5.596e-06 
  5.1400e-01  5.140e-01  5.000e-02 -5.668e-06  5.668e-06 
  5.1600e-01  5.160e-01  5.000e-02 -5.740e-06  5.740e-06 
  5.1800e-01  5.180e-01  5.000e-02 -5.812e-06  5.812e-06 
  5.2000e-01  5.200e-01  5.000e-02 -5.883e-06  5.883e-06 
  5.2200e-01  5.220e-01  5.000e-02 -5.955e-06  5.955e-06 
  5.2400e-01  5.240e-01  5.000e-02 -6.026e-06  6.026e-06 
  5.2600e-01  5.260e-01  5.000e-02 -6.096e-06  6.096e-06 
  5.2800e-01  5.280e-01  5.000e-02 -6.167e-06  6.167e-06 
  5.3000e-01  5.300e-01  5.000e-02 -6.237e-06  6.237e-06 
  5.3200e-01  5.320e-01  5.000e-02 -6.307e-06  6.307e-06 
  5.3400e-01  5.340e-01  5.000e-02 -6.377e-06  6.377e-06 
  5.3600e-01  5.360e-01  5.000e-02 -6.446e-06  6.446e-06 
  5.3800e-01  5.380e-01  5.000e-02 -6.515e-06  6.515e-06 
  5.4000e-01  5.400e-01  5.000e-02 -6.584e-06  6.584e-06 
  5.4200e-01  5.420e-01  5.000e-02 -6.653e-06  6.653e-06 
  5.4400e-01  5.440e-01  5.000e-02 -6.721e-06  6.721e-06 
  5.4600e-01  5.460e-01  5.000e-02 -6.789e-06  6.789e-06 
  5.4800e-01  5.480e-01  5.000e-02 -6.857e-06  6.857e-06 
  5.5000e-01  5.500e-01  5.000e-02 -6.924e-06  6.924e-06 
  5.5200e-01  5.520e-01  5.000e-02 -6.991e-06  6.991e-06 
  5.5400e-01  5.540e-01  5.000e-02 -7.058e-06  7.058e-06 
  5.5600e-01  5.560e-01  5.000e-02 -7.124e-06  7.124e-06 
  5.5800e-01  5.580e-01  5.000e-02 -7.190e-06  7.190e-06 
  5.6000e-01  5.600e-01  5.000e-02 -7.256e-06  7.256e-06 
  5.6200e-01  5.620e-01  5.000e-02 -7.321e-06  7.321e-06 
  5.6400e-01  5.640e-01  5.000e-02 -7.386e-06  7.386e-06 
  5.6600e-01  5.660e-01  5.000e-02 -7.451e-06  7.451e-06 
  5.6800e-01  5.680e-01  5.000e-02 -7.515e-06  7.515e-06 
  5.7000e-01  5.700e-01  5.000e-02 -7.580e-06  7.580e-06 
  5.7200e-01  5.720e-01  5.000e-02 -7.643e-06  7.643e-06 
  5.7400e-01  5.740e-01  5.000e-02 -7.707e-06  7.707e-06 
  5.7600e-01  5.760e-01  5.000e-02 -7.770e-06  7.770e-06 
  5.7800e-01  5.780e-01  5.000e-02 -7.833e-06  7.833e-06 
  5.8000e-01  5.800e-01  5.000e-02 -7.895e-06  7.895e-06 
  5.8200e-01  5.820e-01  5.000e-02 -7.957e-06  7.957e-06 
  5.8400e-01  5.840e-01  5.000e-02 -8.019e-06  8.019e-06 
  5.8600e-01  5.860e-01  5.000e-02 -8.080e-06  8.080e-06 
  5.8800e-01  5.880e-01  5.000e-02 -8.141e-06  8.141e-06 
  5.9000e-01  5.900e-01  5.000e-02 -8.202e-06  8.202e-06 
  5.9200e-01  5.920e-01  5.000e-02 -8.262e-06  8.262e-06 
  5.9400e-01  5.940e-01  5.000e-02 -8.322e-06  8.322e-06 
  5.9600e-01  5.960e-01  5.000e-02 -8.382e-06  8.382e-06 
  5.9800e-01  5.980e-01  5.000e-02 -8.441e-06  8.441e-06 
  6.0000e-01  6.000e-01  5.000e-02 -8.500e-06  8.500e-06 
  6.0200e-01  6.020e-01  5.000e-02 -8.559e-06  8.559e-06 
  6.0400e-01  6.040e-01  5.000e-02 -8.617e-06  8.617e-06 
  6.0600e-01  6.060e-01  5.000e-02 -8.675e-06  8.675e-06 
  6.0800e-01  6.080e-01  5.000e-02 -8.733e-06  8.733e-06 
  6.1000e-01  6.100e-01  5.000e-02 -8.790e-06  8.790e-06 
  6.1200e-01  6.120e-01  5.000e-02 -8.847e-06  8.847e-06 
  6.1400e-01  6.140e-01  5.000e-02 -8.903e-06  8.903e-06 
  6.1600e-01  6.160e-01  5.000e-02 -8.960e-06  8.960e-06 
  6.1800e-01  6.180e-01  5.000e-02 -9.016e-06  9.016e-06 
  6.2000e-01  6.200e-01  5.000e-02 -9.071e-06  9.071e-06 
  6.2200e-01  6.220e-01  5.000e-02 -9.126e-06  9.126e-06 
  6.2400e-01  6.240e-01  5.000e-02 -9.181e-06  9.181e-06 
  6.2600e-01  6.260e-01  5.000e-02 -9.236e-06  9.236e-06 
  6.2800e-01  6.280e-01  5.000e-02 -9.290e-06  9.290e-06 
  6.3000e-01  6.300e-01  5.000e-02 -9.344e-06  9.344e-06 
  6.3200e-01  6.320e-01  5.000e-02 -9.397e-06  9.397e-06 
  6.3400e-01  6.340e-01  5.000e-02 -9.451e-06  9.451e-06 
  6.3600e-01  6.360e-01  5.000e-02 -9.504e-06  9.504e-06 
  6.3800e-01  6.380e-01  5.000e-02 -9.556e-06  9.556e-06 
  6.4000e-01  6.400e-01  5.000e-02 -9.608e-06  9.608e-06 
  6.4200e-01  6.420e-01  5.000e-02 -9.660e-06  9.660e-06 
  6.4400e-01  6.440e-01  5.000e-02 -9.712e-06  9.712e-06 
  6.4600e-01  6.460e-01  5.000e-02 -9.763e-06  9.763e-06 
  6.4800e-01  6.480e-01  5.000e-02 -9.814e-06  9.814e-06 
  6.5000e-01  6.500e-01  5.000e-02 -9.865e-06  9.865e-06 
  6.5200e-01  6.520e-01  5.000e-02 -9.915e-06  9.915e-06 
  6.5400e-01  6.540e-01  5.000e-02 -9.965e-06  9.965e-06 
  6.5600e-01  6.560e-01  5.000e-02 -1.001e-05  1.001e-05 
  6.5800e-01  6.580e-01  5.000e-02 -1.006e-05  1.006e-05 
  6.6000e-01  6.600e-01  5.000e-02 -1.011e-05  1.011e-05 
  6.6200e-01  6.620e-01  5.000e-02 -1.016e-05  1.016e-05 
  6.6400e-01  6.640e-01  5.000e-02 -1.021e-05  1.021e-05 
  6.6600e-01  6.660e-01  5.000e-02 -1.026e-05  1.026e-05 
  6.6800e-01  6.680e-01  5.000e-02 -1.031e-05  1.031e-05 
  6.7000e-01  6.700e-01  5.000e-02 -1.035e-05  1.035e-05 
  6.7200e-01  6.720e-01  5.000e-02 -1.040e-05  1.040e-05 
  6.7400e-01  6.740e-01  5.000e-02 -1.045e-05  1.045e-05 
  6.7600e-01  6.760e-01  5.000e-02 -1.049e-05  1.049e-05 
  6.7800e-01  6.780e-01  5.000e-02 -1.054e-05  1.054e-05 
  6.8000e-01  6.800e-01  5.000e-02 -1.059e-05  1.059e-05 
  6.8200e-01  6.820e-01  5.000e-02 -1.063e-05  1.063e-05 
  6.8400e-01  6.840e-01  5.000e-02 -1.068e-05  1.068e-05 
  6.8600e-01  6.860e-01  5.000e-02 -1.072e-05  1.072e-05 
  6.8800e-01  6.880e-01  5.000e-02 -1.077e-05  1.077e-05 
  6.9000e-01  6.900e-01  5.000e-02 -1.081e-05  1.081e-05 
  6.9200e-01  6.920e-01  5.000e-02 -1.086e-05  1.086e-05 
  6.9400e-01  6.940e-01  5.000e-02 -1.090e-05  1.090e-05 
  6.9600e-01  6.960e-01  5.000e-02 -1.094e-05  1.094e-05 
  6.9800e-01  6.980e-01  5.000e-02 -1.099e-05  1.099e-05 
  7.0000e-01  7.000e-01  5.000e-02 -1.103e-05  1.103e-05 
  7.0200e-01  7.020e-01  5.000e-02 -1.107e-05  1.107e-05 
  7.0400e-01  7.040e-01  5.000e-02 -1.111e-05  1.111e-05 
  7.0600e-01  7.060e-01  5.000e-02 -1.116e-05  1.116e-05 
  7.0800e-01  7.080e-01  5.000e-02 -1.120e-05  1.120e-05 
  7.1000e-01  7.100e-01  5.000e-02 -1.124e-05  1.124e-05 
  7.1200e-01  7.120e-01  5.000e-02 -1.128e-05  1.128e-05 
  7.1400e-01  7.140e-01  5.000e-02 -1.132e-05  1.132e-05 
  7.1600e-01  7.160e-01  5.000e-02 -1.136e-05  1.136e-05 
  7.1800e-01  7.180e-01  5.000e-02 -1.140e-05  1.140e-05 
  7.2000e-01  7.200e-01  5.000e-02 -1.145e-05  1.145e-05 
  7.2200e-01  7.220e-01  5.000e-02 -1.149e-05  1.149e-05 
  7.2400e-01  7.240e-01  5.000e-02 -1.153e-05  1.153e-05 
  7.2600e-01  7.260e-01  5.000e-02 -1.156e-05  1.156e-05 
  7.2800e-01  7.280e-01  5.000e-02 -1.160e-05  1.160e-05 
  7.3000e-01  7.300e-01  5.000e-02 -1.164e-05  1.164e-05 
  7.3200e-01  7.320e-01  5.000e-02 -1.168e-05  1.168e-05 
  7.3400e-01  7.340e-01  5.000e-02 -1.172e-05  1.172e-05 
  7.3600e-01  7.360e-01  5.000e-02 -1.176e-05  1.176e-05 
  7.3800e-01  7.380e-01  5.000e-02 -1.180e-05  1.180e-05 
  7.4000e-01  7.400e-01  5.000e-02 -1.183e-05  1.183e-05 
  7.4200e-01  7.420e-01  5.000e-02 -1.187e-05  1.187e-05 
  7.4400e-01  7.440e-01  5.000e-02 -1.191e-05  1.191e-05 
  7.4600e-01  7.460e-01  5.000e-02 -1.195e-05  1.195e-05 
  7.4800e-01  7.480e-01  5.000e-02 -1.198e-05  1.198e-05 
  7.5000e-01  7.500e-01  5.000e-02 -1.202e-05  1.202e-05 
  7.5200e-01  7.520e-01  5.000e-02 -1.206e-05  1.206e-05 
  7.5400e-01  7.540e-01  5.000e-02 -1.209e-05  1.209e-05 
  7.5600e-01  7.560e-01  5.000e-02 -1.213e-05  1.213e-05 
  7.5800e-01  7.580e-01  5.000e-02 -1.216e-05  1.216e-05 
  7.6000e-01  7.600e-01  5.000e-02 -1.220e-05  1.220e-05 
  7.6200e-01  7.620e-01  5.000e-02 -1.224e-05  1.224e-05 
  7.6400e-01  7.640e-01  5.000e-02 -1.227e-05  1.227e-05 
  7.6600e-01  7.660e-01  5.000e-02 -1.231e-05  1.231e-05 
  7.6800e-01  7.680e-01  5.000e-02 -1.234e-05  1.234e-05 
  7.7000e-01  7.700e-01  5.000e-02 -1.237e-05  1.237e-05 
  7.7200e-01  7.720e-01  5.000e-02 -1.241e-05  1.241e-05 
  7.7400e-01  7.740e-01  5.000e-02 -1.244e-05  1.244e-05 
  7.7600e-01  7.760e-01  5.000e-02 -1.248e-05  1.248e-05 
  7.7800e-01  7.780e-01  5.000e-02 -1.251e-05  1.251e-05 
  7.8000e-01  7.800e-01  5.000e-02 -1.254e-05  1.254e-05 
  7.8200e-01  7.820e-01  5.000e-02 -1.258e-05  1.258e-05 
  7.8400e-01  7.840e-01  5.000e-02 -1.261e-05  1.261e-05 
  7.8600e-01  7.860e-01  5.000e-02 -1.264e-05  1.264e-05 
  7.8800e-01  7.880e-01  5.000e-02 -1.267e-05  1.267e-05 
  7.9000e-01  7.900e-01  5.000e-02 -1.271e-05  1.271e-05 
  7.9200e-01  7.920e-01  5.000e-02 -1.274e-05  1.274e-05 
  7.9400e-01  7.940e-01  5.000e-02 -1.277e-05  1.277e-05 
  7.9600e-01  7.960e-01  5.000e-02 -1.280e-05  1.280e-05 
  7.9800e-01  7.980e-01  5.000e-02 -1.283e-05  1.283e-05 
  8.0000e-01  8.000e-01  5.000e-02 -1.287e-05  1.287e-05 
  8.0200e-01  8.020e-01  5.000e-02 -1.290e-05  1.290e-05 
  8.0400e-01  8.040e-01  5.000e-02 -1.293e-05  1.293e-05 
  8.0600e-01  8.060e-01  5.000e-02 -1.296e-05  1.296e-05 
  8.0800e-01  8.080e-01  5.000e-02 -1.299e-05  1.299e-05 
  8.1000e-01  8.100e-01  5.000e-02 -1.302e-05  1.302e-05 
  8.1200e-01  8.120e-01  5.000e-02 -1.305e-05  1.305e-05 
  8.1400e-01  8.140e-01  5.000e-02 -1.308e-05  1.308e-05 
  8.1600e-01  8.160e-01  5.000e-02 -1.311e-05  1.311e-05 
  8.1800e-01  8.180e-01  5.000e-02 -1.314e-05  1.314e-05 
  8.2000e-01  8.200e-01  5.000e-02 -1.317e-05  1.317e-05 
  8.2200e-01  8.220e-01  5.000e-02 -1.320e-05  1.320e-05 
  8.2400e-01  8.240e-01  5.000e-02 -1.323e-05  1.323e-05 
  8.2600e-01  8.260e-01  5.000e-02 -1.326e-05  1.326e-05 
  8.2800e-01  8.280e-01  5.000e-02 -1.328e-05  1.328e-05 
  8.3000e-01  8.300e-01  5.000e-02 -1.331e-05  1.331e-05 
  8.3200e-01  8.320e-01  5.000e-02 -1.334e-05  1.334e-05 
  8.3400e-01  8.340e-01  5.000e-02 -1.337e-05  1.337e-05 
  8.3600e-01  8.360e-01  5.000e-02 -1.340e-05  1.340e-05 
  8.3800e-01  8.380e-01  5.000e-02 -1.343e-05  1.343e-05 
  8.4000e-01  8.400e-01  5.000e-02 -1.345e-05  1.345e-05 
  8.4200e-01  8.420e-01  5.000e-02 -1.348e-05  1.348e-05 
  8.4400e-01  8.440e-01  5.000e-02 -1.351e-05  1.351e-05 
  8.4600e-01  8.460e-01  5.000e-02 -1.354e-05  1.354e-05 
  8.4800e-01  8.480e-01  5.000e-02 -1.356e-05  1.356e-05 
  8.5000e-01  8.500e-01  5.000e-02 -1.359e-05  1.359e-05 
  8.5200e-01  8.520e-01  5.000e-02 -1.362e-05  1.362e-05 
  8.5400e-01  8.540e-01  5.000e-02 -1.364e-05  1.364e-05 
  8.5600e-01  8.560e-01  5.000e-02 -1.367e-05  1.367e-05 
  8.5800e-01  8.580e-01  5.000e-02 -1.370e-05  1.370e-05 
  8.6000e-01  8.600e-01  5.000e-02 -1.372e-05  1.372e-05 
  8.6200e-01  8.620e-01  5.000e-02 -1.375e-05  1.375e-05 
  8.6400e-01  8.640e-01  5.000e-02 -1.378e-05  1.378e-05 
  8.6600e-01  8.660e-01  5.000e-02 -1.380e-05  1.380e-05 
  8.6800e-01  8.680e-01  5.000e-02 -1.383e-05  1.383e-05 
  8.7000e-01  8.700e-01  5.000e-02 -1.385e-05  1.385e-05 
  8.7200e-01  8.720e-01  5.000e-02 -1.388e-05  1.388e-05 
  8.7400e-01  8.740e-01  5.000e-02 -1.390e-05  1.390e-05 
  8.7600e-01  8.760e-01  5.000e-02 -1.393e-05  1.393e-05 
  8.7800e-01  8.780e-01  5.000e-02 -1.395e-05  1.395e-05 
  8.8000e-01  8.800e-01  5.000e-02 -1.398e-05  1.398e-05 
  8.8200e-01  8.820e-01  5.000e-02 -1.400e-05  1.400e-05 
  8.8400e-01  8.840e-01  5.000e-02 -1.403e-05  1.403e-05 
  8.8600e-01  8.860e-01  5.000e-02 -1.405e-05  1.405e-05 
  8.8800e-01  8.880e-01  5.000e-02 -1.408e-05  1.408e-05 
  8.9000e-01  8.900e-01  5.000e-02 -1.410e-05  1.410e-05 
  8.9200e-01  8.920e-01  5.000e-02 -1.412e-05  1.412e-05 
  8.9400e-01  8.940e-01  5.000e-02 -1.415e-05  1.415e-05 
  8.9600e-01  8.960e-01  5.000e-02 -1.417e-05  1.417e-05 
  8.9800e-01  8.980e-01  5.000e-02 -1.419e-05  1.419e-05 
  9.0000e-01  9.000e-01  5.000e-02 -1.422e-05  1.422e-05 
  9.0200e-01  9.020e-01  5.000e-02 -1.424e-05  1.424e-05 
  9.0400e-01  9.040e-01  5.000e-02 -1.426e-05  1.426e-05 
  9.0600e-01  9.060e-01  5.000e-02 -1.429e-05  1.429e-05 
  9.0800e-01  9.080e-01  5.000e-02 -1.431e-05  1.431e-05 
  9.1000e-01  9.100e-01  5.000e-02 -1.433e-05  1.433e-05 
  9.1200e-01  9.120e-01  5.000e-02 -1.436e-05  1.436e-05 
  9.1400e-01  9.140e-01  5.000e-02 -1.438e-05  1.438e-05 
  9.1600e-01  9.160e-01  5.000e-02 -1.440e-05  1.440e-05 
  9.1800e-01  9.180e-01  5.000e-02 -1.442e-05  1.442e-05 
  9.2000e-01  9.200e-01  5.000e-02 -1.445e-05  1.445e-05 
  9.2200e-01  9.220e-01  5.000e-02 -1.447e-05  1.447e-05 
  9.2400e-01  9.240e-01  5.000e-02 -1.449e-05  1.449e-05 
  9.2600e-01  9.260e-01  5.000e-02 -1.451e-05  1.451e-05 
  9.2800e-01  9.280e-01  5.000e-02 -1.453e-05  1.453e-05 
  9.3000e-01  9.300e-01  5.000e-02 -1.455e-05  1.455e-05 
  9.3200e-01  9.320e-01  5.000e-02 -1.458e-05  1.458e-05 
  9.3400e-01  9.340e-01  5.000e-02 -1.460e-05  1.460e-05 
  9.3600e-01  9.360e-01  5.000e-02 -1.462e-05  1.462e-05 
  9.3800e-01  9.380e-01  5.000e-02 -1.464e-05  1.464e-05 
  9.4000e-01  9.400e-01  5.000e-02 -1.466e-05  1.466e-05 
  9.4200e-01  9.420e-01  5.000e-02 -1.468e-05  1.468e-05 
  9.4400e-01  9.440e-01  5.000e-02 -1.470e-05  1.470e-05 
  9.4600e-01  9.460e-01  5.000e-02 -1.472e-05  1.472e-05 
  9.4800e-01  9.480e-01  5.000e-02 -1.474e-05  1.474e-05 
  9.5000e-01  9.500e-01  5.000e-02 -1.477e-05  1.477e-05 
  9.5200e-01  9.520e-01  5.000e-02 -1.479e-05  1.479e-05 
  9.5400e-01  9.540e-01  5.000e-02 -1.481e-05  1.481e-05 
  9.5600e-01  9.560e-01  5.000e-02 -1.483e-05  1.483e-05 
  9.5800e-01  9.580e-01  5.000e-02 -1.485e-05  1.485e-05 
  9.6000e-01  9.600e-01  5.000e-02 -1.487e-05  1.487e-05 
  9.6200e-01  9.620e-01  5.000e-02 -1.489e-05  1.489e-05 
  9.6400e-01  9.640e-01  5.000e-02 -1.491e-05  1.491e-05 
  9.6600e-01  9.660e-01  5.000e-02 -1.493e-05  1.493e-05 
  9.6800e-01  9.680e-01  5.000e-02 -1.495e-05  1.495e-05 
  9.7000e-01  9.700e-01  5.000e-02 -1.496e-05  1.496e-05 
  9.7200e-01  9.720e-01  5.000e-02 -1.498e-05  1.498e-05 
  9.7400e-01  9.740e-01  5.000e-02 -1.500e-05  1.500e-05 
  9.7600e-01  9.760e-01  5.000e-02 -1.502e-05  1.502e-05 
  9.7800e-01  9.780e-01  5.000e-02 -1.504e-05  1.504e-05 
  9.8000e-01  9.800e-01  5.000e-02 -1.506e-05  1.506e-05 
  9.8200e-01  9.820e-01  5.000e-02 -1.508e-05  1.508e-05 
  9.8400e-01  9.840e-01  5.000e-02 -1.510e-05  1.510e-05 
  9.8600e-01  9.860e-01  5.000e-02 -1.512e-05  1.512e-05 
  9.8800e-01  9.880e-01  5.000e-02 -1.514e-05  1.514e-05 
  9.9000e-01  9.900e-01  5.000e-02 -1.516e-05  1.516e-05 
  9.9200e-01  9.920e-01  5.000e-02 -1.517e-05  1.517e-05 
  9.9400e-01  9.940e-01  5.000e-02 -1.519e-05  1.519e-05 
  9.9600e-01  9.960e-01  5.000e-02 -1.521e-05  1.521e-05 
  9.9800e-01  9.980e-01  5.000e-02 -1.523e-05  1.523e-05 
  1.0000e+00  1.000e+00  5.000e-02 -1.525e-05  1.525e-05 
y

          ***** job concluded
 ******  
 ***********************************************************************

 ****** job statistics summary tnom=  25.000 temp=  25.000 ******

  ******  HSPICE Threads Information  ******

  Command Line Threads Count :     1
  Available CPU Count        :    20
  Actual Threads Count       :     1


  ******  Circuit Statistics  ******
  # nodes       =       5 # elements   =       5
  # resistors   =       0 # capacitors =       0 # inductors   =       0
  # mutual_inds =       0 # vccs       =       0 # vcvs        =       0
  # cccs        =       0 # ccvs       =       0 # volt_srcs   =       4
  # curr_srcs   =       0 # diodes     =       0 # bjts        =       0
  # jfets       =       0 # mosfets    =       0 # U elements  =       0
  # T elements  =       0 # W elements =       0 # B elements  =       0
  # S elements  =       0 # P elements =       0 # va device   =       1
  # vector_srcs =       0 # N elements =       0


  ******  Runtime Statistics (seconds)  ******

  analysis           time    # points   tot. iter  conv.iter
  op point           0.00           1           0
  dc sweep           0.02         501        1003
  readin             1.88
  errchk             0.01
  setup              0.00
  output             0.00


           peak memory used         80.18 megabytes
           total cpu time            1.91 seconds
           total elapsed time        1.95 seconds
           job started at     11:01:40 07/09/2026
           job ended   at     11:01:41 07/09/2026
           job total runtime         1.95 seconds


  lic: Release hspice token(s) 
 lic: total license checkout elapse time:        0.02(s)
